REMARK  Name = ../refined-set-2016/4ca6/4ca6_pocket.pdb
REMARK  298 active torsions:
REMARK  status: ('A' for Active; 'I' for Inactive)
REMARK    1  A    between atoms: _1  and  _3
REMARK    2  A    between atoms: _3  and  _4
REMARK    3  A    between atoms: _3  and  _6
REMARK    4  A    between atoms: _6  and  _7
REMARK    5  A    between atoms: _10  and  _12
REMARK    6  A    between atoms: _12  and  _13
REMARK    7  A    between atoms: _12  and  _15
REMARK    8  A    between atoms: _15  and  _16
REMARK    9  A    between atoms: _18  and  _20
REMARK   10  A    between atoms: _20  and  _21
REMARK   11  A    between atoms: _20  and  _23
REMARK   12  A    between atoms: _23  and  _24
REMARK   13  A    between atoms: _29  and  _30
REMARK   14  A    between atoms: _32  and  _34
REMARK   15  A    between atoms: _34  and  _35
REMARK   16  A    between atoms: _34  and  _37
REMARK   17  A    between atoms: _37  and  _38
REMARK   18  A    between atoms: _48  and  _50
REMARK   19  A    between atoms: _50  and  _51
REMARK   20  A    between atoms: _50  and  _53
REMARK   21  A    between atoms: _53  and  _54
REMARK   22  A    between atoms: _57  and  _59
REMARK   23  A    between atoms: _59  and  _60
REMARK   24  A    between atoms: _59  and  _62
REMARK   25  A    between atoms: _62  and  _63
REMARK   26  A    between atoms: _73  and  _75
REMARK   27  A    between atoms: _75  and  _76
REMARK   28  A    between atoms: _75  and  _78
REMARK   29  A    between atoms: _78  and  _79
REMARK   30  A    between atoms: _79  and  _80
REMARK   31  A    between atoms: _85  and  _87
REMARK   32  A    between atoms: _87  and  _88
REMARK   33  A    between atoms: _87  and  _90
REMARK   34  A    between atoms: _90  and  _91
REMARK   35  A    between atoms: _93  and  _95
REMARK   36  A    between atoms: _95  and  _96
REMARK   37  A    between atoms: _95  and  _98
REMARK   38  A    between atoms: _98  and  _99
REMARK   39  A    between atoms: _99  and  _100
REMARK   40  A    between atoms: _103  and  _105
REMARK   41  A    between atoms: _105  and  _106
REMARK   42  A    between atoms: _105  and  _108
REMARK   43  A    between atoms: _111  and  _113
REMARK   44  A    between atoms: _113  and  _114
REMARK   45  A    between atoms: _113  and  _116
REMARK   46  A    between atoms: _118  and  _120
REMARK   47  A    between atoms: _120  and  _121
REMARK   48  A    between atoms: _120  and  _123
REMARK   49  A    between atoms: _123  and  _124
REMARK   50  A    between atoms: _129  and  _131
REMARK   51  A    between atoms: _131  and  _132
REMARK   52  A    between atoms: _135  and  _137
REMARK   53  A    between atoms: _137  and  _138
REMARK   54  A    between atoms: _137  and  _140
REMARK   55  A    between atoms: _140  and  _141
REMARK   56  A    between atoms: _143  and  _145
REMARK   57  A    between atoms: _145  and  _146
REMARK   58  A    between atoms: _149  and  _151
REMARK   59  A    between atoms: _151  and  _152
REMARK   60  A    between atoms: _151  and  _154
REMARK   61  A    between atoms: _154  and  _155
REMARK   62  A    between atoms: _165  and  _167
REMARK   63  A    between atoms: _167  and  _168
REMARK   64  A    between atoms: _167  and  _170
REMARK   65  A    between atoms: _170  and  _171
REMARK   66  A    between atoms: _174  and  _176
REMARK   67  A    between atoms: _176  and  _177
REMARK   68  A    between atoms: _176  and  _179
REMARK   69  A    between atoms: _179  and  _180
REMARK   70  A    between atoms: _185  and  _186
REMARK   71  A    between atoms: _188  and  _190
REMARK   72  A    between atoms: _190  and  _191
REMARK   73  A    between atoms: _190  and  _193
REMARK   74  A    between atoms: _193  and  _194
REMARK   75  A    between atoms: _194  and  _195
REMARK   76  A    between atoms: _195  and  _196
REMARK   77  A    between atoms: _205  and  _207
REMARK   78  A    between atoms: _207  and  _208
REMARK   79  A    between atoms: _207  and  _210
REMARK   80  A    between atoms: _210  and  _211
REMARK   81  A    between atoms: _214  and  _216
REMARK   82  A    between atoms: _216  and  _217
REMARK   83  A    between atoms: _216  and  _219
REMARK   84  A    between atoms: _219  and  _220
REMARK   85  A    between atoms: _220  and  _221
REMARK   86  A    between atoms: _221  and  _222
REMARK   87  A    between atoms: _222  and  _223
REMARK   88  A    between atoms: _227  and  _229
REMARK   89  A    between atoms: _229  and  _230
REMARK   90  A    between atoms: _229  and  _232
REMARK   91  A    between atoms: _232  and  _233
REMARK   92  A    between atoms: _233  and  _234
REMARK   93  A    between atoms: _239  and  _241
REMARK   94  A    between atoms: _241  and  _242
REMARK   95  A    between atoms: _241  and  _244
REMARK   96  A    between atoms: _244  and  _245
REMARK   97  A    between atoms: _245  and  _246
REMARK   98  A    between atoms: _246  and  _247
REMARK   99  A    between atoms: _256  and  _258
REMARK  100  A    between atoms: _258  and  _259
REMARK  101  A    between atoms: _258  and  _261
REMARK  102  A    between atoms: _261  and  _262
REMARK  103  A    between atoms: _262  and  _263
REMARK  104  A    between atoms: _265  and  _267
REMARK  105  A    between atoms: _267  and  _268
REMARK  106  A    between atoms: _267  and  _270
REMARK  107  A    between atoms: _270  and  _271
REMARK  108  A    between atoms: _274  and  _276
REMARK  109  A    between atoms: _276  and  _277
REMARK  110  A    between atoms: _276  and  _279
REMARK  111  A    between atoms: _279  and  _280
REMARK  112  A    between atoms: _280  and  _281
REMARK  113  A    between atoms: _286  and  _288
REMARK  114  A    between atoms: _288  and  _289
REMARK  115  A    between atoms: _288  and  _291
REMARK  116  A    between atoms: _291  and  _292
REMARK  117  A    between atoms: _295  and  _297
REMARK  118  A    between atoms: _297  and  _298
REMARK  119  A    between atoms: _297  and  _300
REMARK  120  A    between atoms: _300  and  _301
REMARK  121  A    between atoms: _303  and  _305
REMARK  122  A    between atoms: _305  and  _306
REMARK  123  A    between atoms: _305  and  _308
REMARK  124  A    between atoms: _308  and  _309
REMARK  125  A    between atoms: _312  and  _314
REMARK  126  A    between atoms: _314  and  _315
REMARK  127  A    between atoms: _314  and  _317
REMARK  128  A    between atoms: _320  and  _322
REMARK  129  A    between atoms: _322  and  _323
REMARK  130  A    between atoms: _322  and  _325
REMARK  131  A    between atoms: _325  and  _326
REMARK  132  A    between atoms: _331  and  _333
REMARK  133  A    between atoms: _344  and  _347
REMARK  134  A    between atoms: _347  and  _348
REMARK  135  A    between atoms: _348  and  _349
REMARK  136  A    between atoms: _354  and  _357
REMARK  137  A    between atoms: _357  and  _358
REMARK  138  A    between atoms: _358  and  _359
REMARK  139  A    between atoms: _368  and  _369
REMARK  140  A    between atoms: _377  and  _379
REMARK  141  A    between atoms: _379  and  _380
REMARK  142  A    between atoms: _379  and  _382
REMARK  143  A    between atoms: _382  and  _383
REMARK  144  A    between atoms: _386  and  _388
REMARK  145  A    between atoms: _388  and  _389
REMARK  146  A    between atoms: _388  and  _391
REMARK  147  A    between atoms: _391  and  _392
REMARK  148  A    between atoms: _397  and  _398
REMARK  149  A    between atoms: _400  and  _402
REMARK  150  A    between atoms: _402  and  _403
REMARK  151  A    between atoms: _402  and  _405
REMARK  152  A    between atoms: _405  and  _406
REMARK  153  A    between atoms: _411  and  _412
REMARK  154  A    between atoms: _414  and  _416
REMARK  155  A    between atoms: _416  and  _417
REMARK  156  A    between atoms: _416  and  _419
REMARK  157  A    between atoms: _419  and  _420
REMARK  158  A    between atoms: _425  and  _426
REMARK  159  A    between atoms: _428  and  _430
REMARK  160  A    between atoms: _430  and  _431
REMARK  161  A    between atoms: _430  and  _433
REMARK  162  A    between atoms: _433  and  _434
REMARK  163  A    between atoms: _434  and  _435
REMARK  164  A    between atoms: _435  and  _436
REMARK  165  A    between atoms: _445  and  _447
REMARK  166  A    between atoms: _447  and  _448
REMARK  167  A    between atoms: _447  and  _450
REMARK  168  A    between atoms: _450  and  _451
REMARK  169  A    between atoms: _451  and  _452
REMARK  170  A    between atoms: _452  and  _453
REMARK  171  A    between atoms: _462  and  _464
REMARK  172  A    between atoms: _464  and  _465
REMARK  173  A    between atoms: _467  and  _469
REMARK  174  A    between atoms: _469  and  _470
REMARK  175  A    between atoms: _473  and  _475
REMARK  176  A    between atoms: _475  and  _476
REMARK  177  A    between atoms: _475  and  _478
REMARK  178  A    between atoms: _478  and  _479
REMARK  179  A    between atoms: _485  and  _486
REMARK  180  A    between atoms: _491  and  _493
REMARK  181  A    between atoms: _493  and  _494
REMARK  182  A    between atoms: _496  and  _498
REMARK  183  A    between atoms: _498  and  _499
REMARK  184  A    between atoms: _498  and  _501
REMARK  185  A    between atoms: _501  and  _502
REMARK  186  A    between atoms: _508  and  _510
REMARK  187  A    between atoms: _510  and  _511
REMARK  188  A    between atoms: _510  and  _513
REMARK  189  A    between atoms: _513  and  _514
REMARK  190  A    between atoms: _519  and  _521
REMARK  191  A    between atoms: _521  and  _522
REMARK  192  A    between atoms: _521  and  _524
REMARK  193  A    between atoms: _524  and  _525
REMARK  194  A    between atoms: _525  and  _526
REMARK  195  A    between atoms: _526  and  _527
REMARK  196  A    between atoms: _527  and  ZN_792
REMARK  197  A    between atoms: _529  and  _531
REMARK  198  A    between atoms: _531  and  _532
REMARK  199  A    between atoms: _535  and  _537
REMARK  200  A    between atoms: _537  and  _538
REMARK  201  A    between atoms: _540  and  _542
REMARK  202  A    between atoms: _542  and  _543
REMARK  203  A    between atoms: _542  and  _545
REMARK  204  A    between atoms: _545  and  _546
REMARK  205  A    between atoms: _549  and  _551
REMARK  206  A    between atoms: _551  and  _552
REMARK  207  A    between atoms: _551  and  _554
REMARK  208  A    between atoms: _557  and  _559
REMARK  209  A    between atoms: _559  and  _560
REMARK  210  A    between atoms: _563  and  _565
REMARK  211  A    between atoms: _565  and  _566
REMARK  212  A    between atoms: _565  and  _568
REMARK  213  A    between atoms: _568  and  _569
REMARK  214  A    between atoms: _572  and  _574
REMARK  215  A    between atoms: _574  and  _575
REMARK  216  A    between atoms: _574  and  _577
REMARK  217  A    between atoms: _577  and  _578
REMARK  218  A    between atoms: _578  and  _579
REMARK  219  A    between atoms: _582  and  _584
REMARK  220  A    between atoms: _584  and  _585
REMARK  221  A    between atoms: _584  and  _587
REMARK  222  A    between atoms: _587  and  _588
REMARK  223  A    between atoms: _588  and  _589
REMARK  224  A    between atoms: _589  and  _590
REMARK  225  A    between atoms: _590  and  _591
REMARK  226  A    between atoms: _595  and  _597
REMARK  227  A    between atoms: _597  and  _598
REMARK  228  A    between atoms: _597  and  _600
REMARK  229  A    between atoms: _600  and  _601
REMARK  230  A    between atoms: _607  and  _609
REMARK  231  A    between atoms: _609  and  _610
REMARK  232  A    between atoms: _609  and  _612
REMARK  233  A    between atoms: _612  and  _613
REMARK  234  A    between atoms: _619  and  _621
REMARK  235  A    between atoms: _621  and  _622
REMARK  236  A    between atoms: _624  and  _626
REMARK  237  A    between atoms: _626  and  _627
REMARK  238  A    between atoms: _626  and  _629
REMARK  239  A    between atoms: _632  and  _634
REMARK  240  A    between atoms: _634  and  _635
REMARK  241  A    between atoms: _634  and  _637
REMARK  242  A    between atoms: _637  and  _638
REMARK  243  A    between atoms: _638  and  _639
REMARK  244  A    between atoms: _639  and  _640
REMARK  245  A    between atoms: _640  and  _641
REMARK  246  A    between atoms: _645  and  _647
REMARK  247  A    between atoms: _647  and  _648
REMARK  248  A    between atoms: _647  and  _650
REMARK  249  A    between atoms: _650  and  _651
REMARK  250  A    between atoms: _657  and  _659
REMARK  251  A    between atoms: _659  and  _660
REMARK  252  A    between atoms: _659  and  _662
REMARK  253  A    between atoms: _662  and  _663
REMARK  254  A    between atoms: _668  and  _670
REMARK  255  A    between atoms: _670  and  _671
REMARK  256  A    between atoms: _670  and  _673
REMARK  257  A    between atoms: _673  and  _674
REMARK  258  A    between atoms: _679  and  _681
REMARK  259  A    between atoms: _681  and  _682
REMARK  260  A    between atoms: _681  and  _684
REMARK  261  A    between atoms: _687  and  _689
REMARK  262  A    between atoms: _689  and  _690
REMARK  263  A    between atoms: _689  and  _692
REMARK  264  A    between atoms: _692  and  _693
REMARK  265  A    between atoms: _697  and  _698
REMARK  266  A    between atoms: _703  and  _705
REMARK  267  A    between atoms: _705  and  _706
REMARK  268  A    between atoms: _705  and  _708
REMARK  269  A    between atoms: _708  and  _709
REMARK  270  A    between atoms: _714  and  _715
REMARK  271  A    between atoms: _717  and  _719
REMARK  272  A    between atoms: _719  and  _720
REMARK  273  A    between atoms: _719  and  _722
REMARK  274  A    between atoms: _722  and  _723
REMARK  275  A    between atoms: _723  and  _724
REMARK  276  A    between atoms: _724  and  _725
REMARK  277  A    between atoms: _734  and  _736
REMARK  278  A    between atoms: _736  and  _737
REMARK  279  A    between atoms: _736  and  _739
REMARK  280  A    between atoms: _739  and  _740
REMARK  281  A    between atoms: _745  and  _746
REMARK  282  A    between atoms: _748  and  _750
REMARK  283  A    between atoms: _750  and  _751
REMARK  284  A    between atoms: _750  and  _753
REMARK  285  A    between atoms: _753  and  _754
REMARK  286  A    between atoms: _760  and  _762
REMARK  287  A    between atoms: _762  and  _763
REMARK  288  A    between atoms: _762  and  _765
REMARK  289  A    between atoms: _765  and  _766
REMARK  290  A    between atoms: _768  and  _770
REMARK  291  A    between atoms: _770  and  _771
REMARK  292  A    between atoms: _770  and  _773
REMARK  293  A    between atoms: _773  and  _774
REMARK  294  A    between atoms: _780  and  _782
REMARK  295  A    between atoms: _782  and  _783
REMARK  296  A    between atoms: _782  and  _785
REMARK  297  A    between atoms: _785  and  _786
REMARK  298  A    between atoms: _786  and  _787
REMARK                            x       y       z     vdW  Elec       q    Type
REMARK                         _______ _______ _______ _____ _____    ______ ____
ROOT
ATOM      1  CA  ASP A   1      -8.474 -12.328 -33.198  0.00  0.00    +0.144 C 
ENDROOT
BRANCH   1   2
ATOM      2  N   ASP A   1      -9.876 -12.511 -33.597  0.00  0.00    -0.239 NA
ATOM      3  H   ASP A   1     -10.433 -13.289 -33.189  0.00  0.00    +0.142 HD
ENDBRANCH   1   2
BRANCH   1   4
ATOM      4  C   ASP A   1      -7.463 -12.603 -34.320  0.00  0.00    +0.225 C 
ATOM      5  O   ASP A   1      -6.354 -12.083 -34.290  0.00  0.00    -0.287 OA
ENDBRANCH   1   4
BRANCH   1   6
ATOM      6  CB  ASP A   1      -8.147 -13.186 -31.975  0.00  0.00    +0.139 C 
BRANCH   6   7
ATOM      7  CG  ASP A   1      -8.785 -12.656 -30.702  0.00  0.00    +0.367 C 
ATOM      8  OD2 ASP A   1      -8.497 -13.220 -29.629  0.00  0.00    -0.246 OA
ATOM      9  OD1 ASP A   1      -9.571 -11.689 -30.768  0.00  0.00    -0.246 OA
ENDBRANCH   6   7
ENDBRANCH   1   6
TORSDOF 4
REMARK  Name = ../refined-set-2016/4ca6/4ca6_pocket.pdb
REMARK  298 active torsions:
REMARK  status: ('A' for Active; 'I' for Inactive)
REMARK    1  A    between atoms: _1  and  _3
REMARK    2  A    between atoms: _3  and  _4
REMARK    3  A    between atoms: _3  and  _6
REMARK    4  A    between atoms: _6  and  _7
REMARK    5  A    between atoms: _10  and  _12
REMARK    6  A    between atoms: _12  and  _13
REMARK    7  A    between atoms: _12  and  _15
REMARK    8  A    between atoms: _15  and  _16
REMARK    9  A    between atoms: _18  and  _20
REMARK   10  A    between atoms: _20  and  _21
REMARK   11  A    between atoms: _20  and  _23
REMARK   12  A    between atoms: _23  and  _24
REMARK   13  A    between atoms: _29  and  _30
REMARK   14  A    between atoms: _32  and  _34
REMARK   15  A    between atoms: _34  and  _35
REMARK   16  A    between atoms: _34  and  _37
REMARK   17  A    between atoms: _37  and  _38
REMARK   18  A    between atoms: _48  and  _50
REMARK   19  A    between atoms: _50  and  _51
REMARK   20  A    between atoms: _50  and  _53
REMARK   21  A    between atoms: _53  and  _54
REMARK   22  A    between atoms: _57  and  _59
REMARK   23  A    between atoms: _59  and  _60
REMARK   24  A    between atoms: _59  and  _62
REMARK   25  A    between atoms: _62  and  _63
REMARK   26  A    between atoms: _73  and  _75
REMARK   27  A    between atoms: _75  and  _76
REMARK   28  A    between atoms: _75  and  _78
REMARK   29  A    between atoms: _78  and  _79
REMARK   30  A    between atoms: _79  and  _80
REMARK   31  A    between atoms: _85  and  _87
REMARK   32  A    between atoms: _87  and  _88
REMARK   33  A    between atoms: _87  and  _90
REMARK   34  A    between atoms: _90  and  _91
REMARK   35  A    between atoms: _93  and  _95
REMARK   36  A    between atoms: _95  and  _96
REMARK   37  A    between atoms: _95  and  _98
REMARK   38  A    between atoms: _98  and  _99
REMARK   39  A    between atoms: _99  and  _100
REMARK   40  A    between atoms: _103  and  _105
REMARK   41  A    between atoms: _105  and  _106
REMARK   42  A    between atoms: _105  and  _108
REMARK   43  A    between atoms: _111  and  _113
REMARK   44  A    between atoms: _113  and  _114
REMARK   45  A    between atoms: _113  and  _116
REMARK   46  A    between atoms: _118  and  _120
REMARK   47  A    between atoms: _120  and  _121
REMARK   48  A    between atoms: _120  and  _123
REMARK   49  A    between atoms: _123  and  _124
REMARK   50  A    between atoms: _129  and  _131
REMARK   51  A    between atoms: _131  and  _132
REMARK   52  A    between atoms: _135  and  _137
REMARK   53  A    between atoms: _137  and  _138
REMARK   54  A    between atoms: _137  and  _140
REMARK   55  A    between atoms: _140  and  _141
REMARK   56  A    between atoms: _143  and  _145
REMARK   57  A    between atoms: _145  and  _146
REMARK   58  A    between atoms: _149  and  _151
REMARK   59  A    between atoms: _151  and  _152
REMARK   60  A    between atoms: _151  and  _154
REMARK   61  A    between atoms: _154  and  _155
REMARK   62  A    between atoms: _165  and  _167
REMARK   63  A    between atoms: _167  and  _168
REMARK   64  A    between atoms: _167  and  _170
REMARK   65  A    between atoms: _170  and  _171
REMARK   66  A    between atoms: _174  and  _176
REMARK   67  A    between atoms: _176  and  _177
REMARK   68  A    between atoms: _176  and  _179
REMARK   69  A    between atoms: _179  and  _180
REMARK   70  A    between atoms: _185  and  _186
REMARK   71  A    between atoms: _188  and  _190
REMARK   72  A    between atoms: _190  and  _191
REMARK   73  A    between atoms: _190  and  _193
REMARK   74  A    between atoms: _193  and  _194
REMARK   75  A    between atoms: _194  and  _195
REMARK   76  A    between atoms: _195  and  _196
REMARK   77  A    between atoms: _205  and  _207
REMARK   78  A    between atoms: _207  and  _208
REMARK   79  A    between atoms: _207  and  _210
REMARK   80  A    between atoms: _210  and  _211
REMARK   81  A    between atoms: _214  and  _216
REMARK   82  A    between atoms: _216  and  _217
REMARK   83  A    between atoms: _216  and  _219
REMARK   84  A    between atoms: _219  and  _220
REMARK   85  A    between atoms: _220  and  _221
REMARK   86  A    between atoms: _221  and  _222
REMARK   87  A    between atoms: _222  and  _223
REMARK   88  A    between atoms: _227  and  _229
REMARK   89  A    between atoms: _229  and  _230
REMARK   90  A    between atoms: _229  and  _232
REMARK   91  A    between atoms: _232  and  _233
REMARK   92  A    between atoms: _233  and  _234
REMARK   93  A    between atoms: _239  and  _241
REMARK   94  A    between atoms: _241  and  _242
REMARK   95  A    between atoms: _241  and  _244
REMARK   96  A    between atoms: _244  and  _245
REMARK   97  A    between atoms: _245  and  _246
REMARK   98  A    between atoms: _246  and  _247
REMARK   99  A    between atoms: _256  and  _258
REMARK  100  A    between atoms: _258  and  _259
REMARK  101  A    between atoms: _258  and  _261
REMARK  102  A    between atoms: _261  and  _262
REMARK  103  A    between atoms: _262  and  _263
REMARK  104  A    between atoms: _265  and  _267
REMARK  105  A    between atoms: _267  and  _268
REMARK  106  A    between atoms: _267  and  _270
REMARK  107  A    between atoms: _270  and  _271
REMARK  108  A    between atoms: _274  and  _276
REMARK  109  A    between atoms: _276  and  _277
REMARK  110  A    between atoms: _276  and  _279
REMARK  111  A    between atoms: _279  and  _280
REMARK  112  A    between atoms: _280  and  _281
REMARK  113  A    between atoms: _286  and  _288
REMARK  114  A    between atoms: _288  and  _289
REMARK  115  A    between atoms: _288  and  _291
REMARK  116  A    between atoms: _291  and  _292
REMARK  117  A    between atoms: _295  and  _297
REMARK  118  A    between atoms: _297  and  _298
REMARK  119  A    between atoms: _297  and  _300
REMARK  120  A    between atoms: _300  and  _301
REMARK  121  A    between atoms: _303  and  _305
REMARK  122  A    between atoms: _305  and  _306
REMARK  123  A    between atoms: _305  and  _308
REMARK  124  A    between atoms: _308  and  _309
REMARK  125  A    between atoms: _312  and  _314
REMARK  126  A    between atoms: _314  and  _315
REMARK  127  A    between atoms: _314  and  _317
REMARK  128  A    between atoms: _320  and  _322
REMARK  129  A    between atoms: _322  and  _323
REMARK  130  A    between atoms: _322  and  _325
REMARK  131  A    between atoms: _325  and  _326
REMARK  132  A    between atoms: _331  and  _333
REMARK  133  A    between atoms: _344  and  _347
REMARK  134  A    between atoms: _347  and  _348
REMARK  135  A    between atoms: _348  and  _349
REMARK  136  A    between atoms: _354  and  _357
REMARK  137  A    between atoms: _357  and  _358
REMARK  138  A    between atoms: _358  and  _359
REMARK  139  A    between atoms: _368  and  _369
REMARK  140  A    between atoms: _377  and  _379
REMARK  141  A    between atoms: _379  and  _380
REMARK  142  A    between atoms: _379  and  _382
REMARK  143  A    between atoms: _382  and  _383
REMARK  144  A    between atoms: _386  and  _388
REMARK  145  A    between atoms: _388  and  _389
REMARK  146  A    between atoms: _388  and  _391
REMARK  147  A    between atoms: _391  and  _392
REMARK  148  A    between atoms: _397  and  _398
REMARK  149  A    between atoms: _400  and  _402
REMARK  150  A    between atoms: _402  and  _403
REMARK  151  A    between atoms: _402  and  _405
REMARK  152  A    between atoms: _405  and  _406
REMARK  153  A    between atoms: _411  and  _412
REMARK  154  A    between atoms: _414  and  _416
REMARK  155  A    between atoms: _416  and  _417
REMARK  156  A    between atoms: _416  and  _419
REMARK  157  A    between atoms: _419  and  _420
REMARK  158  A    between atoms: _425  and  _426
REMARK  159  A    between atoms: _428  and  _430
REMARK  160  A    between atoms: _430  and  _431
REMARK  161  A    between atoms: _430  and  _433
REMARK  162  A    between atoms: _433  and  _434
REMARK  163  A    between atoms: _434  and  _435
REMARK  164  A    between atoms: _435  and  _436
REMARK  165  A    between atoms: _445  and  _447
REMARK  166  A    between atoms: _447  and  _448
REMARK  167  A    between atoms: _447  and  _450
REMARK  168  A    between atoms: _450  and  _451
REMARK  169  A    between atoms: _451  and  _452
REMARK  170  A    between atoms: _452  and  _453
REMARK  171  A    between atoms: _462  and  _464
REMARK  172  A    between atoms: _464  and  _465
REMARK  173  A    between atoms: _467  and  _469
REMARK  174  A    between atoms: _469  and  _470
REMARK  175  A    between atoms: _473  and  _475
REMARK  176  A    between atoms: _475  and  _476
REMARK  177  A    between atoms: _475  and  _478
REMARK  178  A    between atoms: _478  and  _479
REMARK  179  A    between atoms: _485  and  _486
REMARK  180  A    between atoms: _491  and  _493
REMARK  181  A    between atoms: _493  and  _494
REMARK  182  A    between atoms: _496  and  _498
REMARK  183  A    between atoms: _498  and  _499
REMARK  184  A    between atoms: _498  and  _501
REMARK  185  A    between atoms: _501  and  _502
REMARK  186  A    between atoms: _508  and  _510
REMARK  187  A    between atoms: _510  and  _511
REMARK  188  A    between atoms: _510  and  _513
REMARK  189  A    between atoms: _513  and  _514
REMARK  190  A    between atoms: _519  and  _521
REMARK  191  A    between atoms: _521  and  _522
REMARK  192  A    between atoms: _521  and  _524
REMARK  193  A    between atoms: _524  and  _525
REMARK  194  A    between atoms: _525  and  _526
REMARK  195  A    between atoms: _526  and  _527
REMARK  196  A    between atoms: _527  and  ZN_792
REMARK  197  A    between atoms: _529  and  _531
REMARK  198  A    between atoms: _531  and  _532
REMARK  199  A    between atoms: _535  and  _537
REMARK  200  A    between atoms: _537  and  _538
REMARK  201  A    between atoms: _540  and  _542
REMARK  202  A    between atoms: _542  and  _543
REMARK  203  A    between atoms: _542  and  _545
REMARK  204  A    between atoms: _545  and  _546
REMARK  205  A    between atoms: _549  and  _551
REMARK  206  A    between atoms: _551  and  _552
REMARK  207  A    between atoms: _551  and  _554
REMARK  208  A    between atoms: _557  and  _559
REMARK  209  A    between atoms: _559  and  _560
REMARK  210  A    between atoms: _563  and  _565
REMARK  211  A    between atoms: _565  and  _566
REMARK  212  A    between atoms: _565  and  _568
REMARK  213  A    between atoms: _568  and  _569
REMARK  214  A    between atoms: _572  and  _574
REMARK  215  A    between atoms: _574  and  _575
REMARK  216  A    between atoms: _574  and  _577
REMARK  217  A    between atoms: _577  and  _578
REMARK  218  A    between atoms: _578  and  _579
REMARK  219  A    between atoms: _582  and  _584
REMARK  220  A    between atoms: _584  and  _585
REMARK  221  A    between atoms: _584  and  _587
REMARK  222  A    between atoms: _587  and  _588
REMARK  223  A    between atoms: _588  and  _589
REMARK  224  A    between atoms: _589  and  _590
REMARK  225  A    between atoms: _590  and  _591
REMARK  226  A    between atoms: _595  and  _597
REMARK  227  A    between atoms: _597  and  _598
REMARK  228  A    between atoms: _597  and  _600
REMARK  229  A    between atoms: _600  and  _601
REMARK  230  A    between atoms: _607  and  _609
REMARK  231  A    between atoms: _609  and  _610
REMARK  232  A    between atoms: _609  and  _612
REMARK  233  A    between atoms: _612  and  _613
REMARK  234  A    between atoms: _619  and  _621
REMARK  235  A    between atoms: _621  and  _622
REMARK  236  A    between atoms: _624  and  _626
REMARK  237  A    between atoms: _626  and  _627
REMARK  238  A    between atoms: _626  and  _629
REMARK  239  A    between atoms: _632  and  _634
REMARK  240  A    between atoms: _634  and  _635
REMARK  241  A    between atoms: _634  and  _637
REMARK  242  A    between atoms: _637  and  _638
REMARK  243  A    between atoms: _638  and  _639
REMARK  244  A    between atoms: _639  and  _640
REMARK  245  A    between atoms: _640  and  _641
REMARK  246  A    between atoms: _645  and  _647
REMARK  247  A    between atoms: _647  and  _648
REMARK  248  A    between atoms: _647  and  _650
REMARK  249  A    between atoms: _650  and  _651
REMARK  250  A    between atoms: _657  and  _659
REMARK  251  A    between atoms: _659  and  _660
REMARK  252  A    between atoms: _659  and  _662
REMARK  253  A    between atoms: _662  and  _663
REMARK  254  A    between atoms: _668  and  _670
REMARK  255  A    between atoms: _670  and  _671
REMARK  256  A    between atoms: _670  and  _673
REMARK  257  A    between atoms: _673  and  _674
REMARK  258  A    between atoms: _679  and  _681
REMARK  259  A    between atoms: _681  and  _682
REMARK  260  A    between atoms: _681  and  _684
REMARK  261  A    between atoms: _687  and  _689
REMARK  262  A    between atoms: _689  and  _690
REMARK  263  A    between atoms: _689  and  _692
REMARK  264  A    between atoms: _692  and  _693
REMARK  265  A    between atoms: _697  and  _698
REMARK  266  A    between atoms: _703  and  _705
REMARK  267  A    between atoms: _705  and  _706
REMARK  268  A    between atoms: _705  and  _708
REMARK  269  A    between atoms: _708  and  _709
REMARK  270  A    between atoms: _714  and  _715
REMARK  271  A    between atoms: _717  and  _719
REMARK  272  A    between atoms: _719  and  _720
REMARK  273  A    between atoms: _719  and  _722
REMARK  274  A    between atoms: _722  and  _723
REMARK  275  A    between atoms: _723  and  _724
REMARK  276  A    between atoms: _724  and  _725
REMARK  277  A    between atoms: _734  and  _736
REMARK  278  A    between atoms: _736  and  _737
REMARK  279  A    between atoms: _736  and  _739
REMARK  280  A    between atoms: _739  and  _740
REMARK  281  A    between atoms: _745  and  _746
REMARK  282  A    between atoms: _748  and  _750
REMARK  283  A    between atoms: _750  and  _751
REMARK  284  A    between atoms: _750  and  _753
REMARK  285  A    between atoms: _753  and  _754
REMARK  286  A    between atoms: _760  and  _762
REMARK  287  A    between atoms: _762  and  _763
REMARK  288  A    between atoms: _762  and  _765
REMARK  289  A    between atoms: _765  and  _766
REMARK  290  A    between atoms: _768  and  _770
REMARK  291  A    between atoms: _770  and  _771
REMARK  292  A    between atoms: _770  and  _773
REMARK  293  A    between atoms: _773  and  _774
REMARK  294  A    between atoms: _780  and  _782
REMARK  295  A    between atoms: _782  and  _783
REMARK  296  A    between atoms: _782  and  _785
REMARK  297  A    between atoms: _785  and  _786
REMARK  298  A    between atoms: _786  and  _787
REMARK                            x       y       z     vdW  Elec       q    Type
REMARK                         _______ _______ _______ _____ _____    ______ ____
ROOT
ATOM      1  CA  SER A   1      -8.707  -5.564 -27.139  0.00  0.00    +0.163 C 
ENDROOT
BRANCH   1   2
ATOM      2  N   SER A   1      -9.486  -4.602 -26.352  0.00  0.00    -0.237 NA
ATOM      3  H   SER A   1     -10.460  -4.848 -26.084  0.00  0.00    +0.142 HD
ENDBRANCH   1   2
BRANCH   1   4
ATOM      4  C   SER A   1      -8.207  -4.964 -28.464  0.00  0.00    +0.227 C 
ATOM      5  O   SER A   1      -7.028  -5.093 -28.796  0.00  0.00    -0.287 OA
ENDBRANCH   1   4
BRANCH   1   6
ATOM      6  CB  SER A   1      -9.551  -6.804 -27.416  0.00  0.00    +0.162 C 
BRANCH   6   7
ATOM      7  OG  SER A   1      -8.848  -7.705 -28.244  0.00  0.00    -0.380 OA
ATOM      8  H   SER A   1      -9.410  -8.503 -28.413  0.00  0.00    +0.211 HD
ENDBRANCH   6   7
ENDBRANCH   1   6
TORSDOF 4
REMARK  Name = ../refined-set-2016/4ca6/4ca6_pocket.pdb
REMARK  298 active torsions:
REMARK  status: ('A' for Active; 'I' for Inactive)
REMARK    1  A    between atoms: _1  and  _3
REMARK    2  A    between atoms: _3  and  _4
REMARK    3  A    between atoms: _3  and  _6
REMARK    4  A    between atoms: _6  and  _7
REMARK    5  A    between atoms: _10  and  _12
REMARK    6  A    between atoms: _12  and  _13
REMARK    7  A    between atoms: _12  and  _15
REMARK    8  A    between atoms: _15  and  _16
REMARK    9  A    between atoms: _18  and  _20
REMARK   10  A    between atoms: _20  and  _21
REMARK   11  A    between atoms: _20  and  _23
REMARK   12  A    between atoms: _23  and  _24
REMARK   13  A    between atoms: _29  and  _30
REMARK   14  A    between atoms: _32  and  _34
REMARK   15  A    between atoms: _34  and  _35
REMARK   16  A    between atoms: _34  and  _37
REMARK   17  A    between atoms: _37  and  _38
REMARK   18  A    between atoms: _48  and  _50
REMARK   19  A    between atoms: _50  and  _51
REMARK   20  A    between atoms: _50  and  _53
REMARK   21  A    between atoms: _53  and  _54
REMARK   22  A    between atoms: _57  and  _59
REMARK   23  A    between atoms: _59  and  _60
REMARK   24  A    between atoms: _59  and  _62
REMARK   25  A    between atoms: _62  and  _63
REMARK   26  A    between atoms: _73  and  _75
REMARK   27  A    between atoms: _75  and  _76
REMARK   28  A    between atoms: _75  and  _78
REMARK   29  A    between atoms: _78  and  _79
REMARK   30  A    between atoms: _79  and  _80
REMARK   31  A    between atoms: _85  and  _87
REMARK   32  A    between atoms: _87  and  _88
REMARK   33  A    between atoms: _87  and  _90
REMARK   34  A    between atoms: _90  and  _91
REMARK   35  A    between atoms: _93  and  _95
REMARK   36  A    between atoms: _95  and  _96
REMARK   37  A    between atoms: _95  and  _98
REMARK   38  A    between atoms: _98  and  _99
REMARK   39  A    between atoms: _99  and  _100
REMARK   40  A    between atoms: _103  and  _105
REMARK   41  A    between atoms: _105  and  _106
REMARK   42  A    between atoms: _105  and  _108
REMARK   43  A    between atoms: _111  and  _113
REMARK   44  A    between atoms: _113  and  _114
REMARK   45  A    between atoms: _113  and  _116
REMARK   46  A    between atoms: _118  and  _120
REMARK   47  A    between atoms: _120  and  _121
REMARK   48  A    between atoms: _120  and  _123
REMARK   49  A    between atoms: _123  and  _124
REMARK   50  A    between atoms: _129  and  _131
REMARK   51  A    between atoms: _131  and  _132
REMARK   52  A    between atoms: _135  and  _137
REMARK   53  A    between atoms: _137  and  _138
REMARK   54  A    between atoms: _137  and  _140
REMARK   55  A    between atoms: _140  and  _141
REMARK   56  A    between atoms: _143  and  _145
REMARK   57  A    between atoms: _145  and  _146
REMARK   58  A    between atoms: _149  and  _151
REMARK   59  A    between atoms: _151  and  _152
REMARK   60  A    between atoms: _151  and  _154
REMARK   61  A    between atoms: _154  and  _155
REMARK   62  A    between atoms: _165  and  _167
REMARK   63  A    between atoms: _167  and  _168
REMARK   64  A    between atoms: _167  and  _170
REMARK   65  A    between atoms: _170  and  _171
REMARK   66  A    between atoms: _174  and  _176
REMARK   67  A    between atoms: _176  and  _177
REMARK   68  A    between atoms: _176  and  _179
REMARK   69  A    between atoms: _179  and  _180
REMARK   70  A    between atoms: _185  and  _186
REMARK   71  A    between atoms: _188  and  _190
REMARK   72  A    between atoms: _190  and  _191
REMARK   73  A    between atoms: _190  and  _193
REMARK   74  A    between atoms: _193  and  _194
REMARK   75  A    between atoms: _194  and  _195
REMARK   76  A    between atoms: _195  and  _196
REMARK   77  A    between atoms: _205  and  _207
REMARK   78  A    between atoms: _207  and  _208
REMARK   79  A    between atoms: _207  and  _210
REMARK   80  A    between atoms: _210  and  _211
REMARK   81  A    between atoms: _214  and  _216
REMARK   82  A    between atoms: _216  and  _217
REMARK   83  A    between atoms: _216  and  _219
REMARK   84  A    between atoms: _219  and  _220
REMARK   85  A    between atoms: _220  and  _221
REMARK   86  A    between atoms: _221  and  _222
REMARK   87  A    between atoms: _222  and  _223
REMARK   88  A    between atoms: _227  and  _229
REMARK   89  A    between atoms: _229  and  _230
REMARK   90  A    between atoms: _229  and  _232
REMARK   91  A    between atoms: _232  and  _233
REMARK   92  A    between atoms: _233  and  _234
REMARK   93  A    between atoms: _239  and  _241
REMARK   94  A    between atoms: _241  and  _242
REMARK   95  A    between atoms: _241  and  _244
REMARK   96  A    between atoms: _244  and  _245
REMARK   97  A    between atoms: _245  and  _246
REMARK   98  A    between atoms: _246  and  _247
REMARK   99  A    between atoms: _256  and  _258
REMARK  100  A    between atoms: _258  and  _259
REMARK  101  A    between atoms: _258  and  _261
REMARK  102  A    between atoms: _261  and  _262
REMARK  103  A    between atoms: _262  and  _263
REMARK  104  A    between atoms: _265  and  _267
REMARK  105  A    between atoms: _267  and  _268
REMARK  106  A    between atoms: _267  and  _270
REMARK  107  A    between atoms: _270  and  _271
REMARK  108  A    between atoms: _274  and  _276
REMARK  109  A    between atoms: _276  and  _277
REMARK  110  A    between atoms: _276  and  _279
REMARK  111  A    between atoms: _279  and  _280
REMARK  112  A    between atoms: _280  and  _281
REMARK  113  A    between atoms: _286  and  _288
REMARK  114  A    between atoms: _288  and  _289
REMARK  115  A    between atoms: _288  and  _291
REMARK  116  A    between atoms: _291  and  _292
REMARK  117  A    between atoms: _295  and  _297
REMARK  118  A    between atoms: _297  and  _298
REMARK  119  A    between atoms: _297  and  _300
REMARK  120  A    between atoms: _300  and  _301
REMARK  121  A    between atoms: _303  and  _305
REMARK  122  A    between atoms: _305  and  _306
REMARK  123  A    between atoms: _305  and  _308
REMARK  124  A    between atoms: _308  and  _309
REMARK  125  A    between atoms: _312  and  _314
REMARK  126  A    between atoms: _314  and  _315
REMARK  127  A    between atoms: _314  and  _317
REMARK  128  A    between atoms: _320  and  _322
REMARK  129  A    between atoms: _322  and  _323
REMARK  130  A    between atoms: _322  and  _325
REMARK  131  A    between atoms: _325  and  _326
REMARK  132  A    between atoms: _331  and  _333
REMARK  133  A    between atoms: _344  and  _347
REMARK  134  A    between atoms: _347  and  _348
REMARK  135  A    between atoms: _348  and  _349
REMARK  136  A    between atoms: _354  and  _357
REMARK  137  A    between atoms: _357  and  _358
REMARK  138  A    between atoms: _358  and  _359
REMARK  139  A    between atoms: _368  and  _369
REMARK  140  A    between atoms: _377  and  _379
REMARK  141  A    between atoms: _379  and  _380
REMARK  142  A    between atoms: _379  and  _382
REMARK  143  A    between atoms: _382  and  _383
REMARK  144  A    between atoms: _386  and  _388
REMARK  145  A    between atoms: _388  and  _389
REMARK  146  A    between atoms: _388  and  _391
REMARK  147  A    between atoms: _391  and  _392
REMARK  148  A    between atoms: _397  and  _398
REMARK  149  A    between atoms: _400  and  _402
REMARK  150  A    between atoms: _402  and  _403
REMARK  151  A    between atoms: _402  and  _405
REMARK  152  A    between atoms: _405  and  _406
REMARK  153  A    between atoms: _411  and  _412
REMARK  154  A    between atoms: _414  and  _416
REMARK  155  A    between atoms: _416  and  _417
REMARK  156  A    between atoms: _416  and  _419
REMARK  157  A    between atoms: _419  and  _420
REMARK  158  A    between atoms: _425  and  _426
REMARK  159  A    between atoms: _428  and  _430
REMARK  160  A    between atoms: _430  and  _431
REMARK  161  A    between atoms: _430  and  _433
REMARK  162  A    between atoms: _433  and  _434
REMARK  163  A    between atoms: _434  and  _435
REMARK  164  A    between atoms: _435  and  _436
REMARK  165  A    between atoms: _445  and  _447
REMARK  166  A    between atoms: _447  and  _448
REMARK  167  A    between atoms: _447  and  _450
REMARK  168  A    between atoms: _450  and  _451
REMARK  169  A    between atoms: _451  and  _452
REMARK  170  A    between atoms: _452  and  _453
REMARK  171  A    between atoms: _462  and  _464
REMARK  172  A    between atoms: _464  and  _465
REMARK  173  A    between atoms: _467  and  _469
REMARK  174  A    between atoms: _469  and  _470
REMARK  175  A    between atoms: _473  and  _475
REMARK  176  A    between atoms: _475  and  _476
REMARK  177  A    between atoms: _475  and  _478
REMARK  178  A    between atoms: _478  and  _479
REMARK  179  A    between atoms: _485  and  _486
REMARK  180  A    between atoms: _491  and  _493
REMARK  181  A    between atoms: _493  and  _494
REMARK  182  A    between atoms: _496  and  _498
REMARK  183  A    between atoms: _498  and  _499
REMARK  184  A    between atoms: _498  and  _501
REMARK  185  A    between atoms: _501  and  _502
REMARK  186  A    between atoms: _508  and  _510
REMARK  187  A    between atoms: _510  and  _511
REMARK  188  A    between atoms: _510  and  _513
REMARK  189  A    between atoms: _513  and  _514
REMARK  190  A    between atoms: _519  and  _521
REMARK  191  A    between atoms: _521  and  _522
REMARK  192  A    between atoms: _521  and  _524
REMARK  193  A    between atoms: _524  and  _525
REMARK  194  A    between atoms: _525  and  _526
REMARK  195  A    between atoms: _526  and  _527
REMARK  196  A    between atoms: _527  and  ZN_792
REMARK  197  A    between atoms: _529  and  _531
REMARK  198  A    between atoms: _531  and  _532
REMARK  199  A    between atoms: _535  and  _537
REMARK  200  A    between atoms: _537  and  _538
REMARK  201  A    between atoms: _540  and  _542
REMARK  202  A    between atoms: _542  and  _543
REMARK  203  A    between atoms: _542  and  _545
REMARK  204  A    between atoms: _545  and  _546
REMARK  205  A    between atoms: _549  and  _551
REMARK  206  A    between atoms: _551  and  _552
REMARK  207  A    between atoms: _551  and  _554
REMARK  208  A    between atoms: _557  and  _559
REMARK  209  A    between atoms: _559  and  _560
REMARK  210  A    between atoms: _563  and  _565
REMARK  211  A    between atoms: _565  and  _566
REMARK  212  A    between atoms: _565  and  _568
REMARK  213  A    between atoms: _568  and  _569
REMARK  214  A    between atoms: _572  and  _574
REMARK  215  A    between atoms: _574  and  _575
REMARK  216  A    between atoms: _574  and  _577
REMARK  217  A    between atoms: _577  and  _578
REMARK  218  A    between atoms: _578  and  _579
REMARK  219  A    between atoms: _582  and  _584
REMARK  220  A    between atoms: _584  and  _585
REMARK  221  A    between atoms: _584  and  _587
REMARK  222  A    between atoms: _587  and  _588
REMARK  223  A    between atoms: _588  and  _589
REMARK  224  A    between atoms: _589  and  _590
REMARK  225  A    between atoms: _590  and  _591
REMARK  226  A    between atoms: _595  and  _597
REMARK  227  A    between atoms: _597  and  _598
REMARK  228  A    between atoms: _597  and  _600
REMARK  229  A    between atoms: _600  and  _601
REMARK  230  A    between atoms: _607  and  _609
REMARK  231  A    between atoms: _609  and  _610
REMARK  232  A    between atoms: _609  and  _612
REMARK  233  A    between atoms: _612  and  _613
REMARK  234  A    between atoms: _619  and  _621
REMARK  235  A    between atoms: _621  and  _622
REMARK  236  A    between atoms: _624  and  _626
REMARK  237  A    between atoms: _626  and  _627
REMARK  238  A    between atoms: _626  and  _629
REMARK  239  A    between atoms: _632  and  _634
REMARK  240  A    between atoms: _634  and  _635
REMARK  241  A    between atoms: _634  and  _637
REMARK  242  A    between atoms: _637  and  _638
REMARK  243  A    between atoms: _638  and  _639
REMARK  244  A    between atoms: _639  and  _640
REMARK  245  A    between atoms: _640  and  _641
REMARK  246  A    between atoms: _645  and  _647
REMARK  247  A    between atoms: _647  and  _648
REMARK  248  A    between atoms: _647  and  _650
REMARK  249  A    between atoms: _650  and  _651
REMARK  250  A    between atoms: _657  and  _659
REMARK  251  A    between atoms: _659  and  _660
REMARK  252  A    between atoms: _659  and  _662
REMARK  253  A    between atoms: _662  and  _663
REMARK  254  A    between atoms: _668  and  _670
REMARK  255  A    between atoms: _670  and  _671
REMARK  256  A    between atoms: _670  and  _673
REMARK  257  A    between atoms: _673  and  _674
REMARK  258  A    between atoms: _679  and  _681
REMARK  259  A    between atoms: _681  and  _682
REMARK  260  A    between atoms: _681  and  _684
REMARK  261  A    between atoms: _687  and  _689
REMARK  262  A    between atoms: _689  and  _690
REMARK  263  A    between atoms: _689  and  _692
REMARK  264  A    between atoms: _692  and  _693
REMARK  265  A    between atoms: _697  and  _698
REMARK  266  A    between atoms: _703  and  _705
REMARK  267  A    between atoms: _705  and  _706
REMARK  268  A    between atoms: _705  and  _708
REMARK  269  A    between atoms: _708  and  _709
REMARK  270  A    between atoms: _714  and  _715
REMARK  271  A    between atoms: _717  and  _719
REMARK  272  A    between atoms: _719  and  _720
REMARK  273  A    between atoms: _719  and  _722
REMARK  274  A    between atoms: _722  and  _723
REMARK  275  A    between atoms: _723  and  _724
REMARK  276  A    between atoms: _724  and  _725
REMARK  277  A    between atoms: _734  and  _736
REMARK  278  A    between atoms: _736  and  _737
REMARK  279  A    between atoms: _736  and  _739
REMARK  280  A    between atoms: _739  and  _740
REMARK  281  A    between atoms: _745  and  _746
REMARK  282  A    between atoms: _748  and  _750
REMARK  283  A    between atoms: _750  and  _751
REMARK  284  A    between atoms: _750  and  _753
REMARK  285  A    between atoms: _753  and  _754
REMARK  286  A    between atoms: _760  and  _762
REMARK  287  A    between atoms: _762  and  _763
REMARK  288  A    between atoms: _762  and  _765
REMARK  289  A    between atoms: _765  and  _766
REMARK  290  A    between atoms: _768  and  _770
REMARK  291  A    between atoms: _770  and  _771
REMARK  292  A    between atoms: _770  and  _773
REMARK  293  A    between atoms: _773  and  _774
REMARK  294  A    between atoms: _780  and  _782
REMARK  295  A    between atoms: _782  and  _783
REMARK  296  A    between atoms: _782  and  _785
REMARK  297  A    between atoms: _785  and  _786
REMARK  298  A    between atoms: _786  and  _787
REMARK                            x       y       z     vdW  Elec       q    Type
REMARK                         _______ _______ _______ _____ _____    ______ ____
ROOT
ATOM      1  CG  TYR A   1      -2.814  -4.380 -26.047  0.00  0.00    -0.020 A 
ATOM      2  CD2 TYR A   1      -2.029  -3.779 -25.055  0.00  0.00    -0.001 A 
ATOM      3  CE2 TYR A   1      -0.785  -4.287 -24.719  0.00  0.00    +0.036 A 
ATOM      4  CZ  TYR A   1      -0.283  -5.391 -25.396  0.00  0.00    +0.134 A 
ATOM      5  CE1 TYR A   1      -1.038  -6.003 -26.395  0.00  0.00    +0.036 A 
ATOM      6  CD1 TYR A   1      -2.298  -5.499 -26.712  0.00  0.00    -0.001 A 
ENDROOT
BRANCH   4   7
ATOM      7  OH  TYR A   1       0.963  -5.887 -25.041  0.00  0.00    -0.506 OA
ATOM      8  HH  TYR A   1       1.180  -6.668 -25.609  0.00  0.00    +0.292 HD
ENDBRANCH   4   7
BRANCH   1   9
ATOM      9  CB  TYR A   1      -4.169  -3.809 -26.413  0.00  0.00    +0.051 C 
BRANCH   9  10
ATOM     10  CA  TYR A   1      -4.092  -2.802 -27.576  0.00  0.00    +0.137 C 
BRANCH  10  11
ATOM     11  N   TYR A   1      -5.406  -2.245 -27.895  0.00  0.00    -0.239 NA
ATOM     12  H   TYR A   1      -6.257  -2.636 -27.442  0.00  0.00    +0.142 HD
ENDBRANCH  10  11
BRANCH  10  13
ATOM     13  C   TYR A   1      -3.455  -3.443 -28.811  0.00  0.00    +0.224 C 
ATOM     14  O   TYR A   1      -2.287  -3.205 -29.101  0.00  0.00    -0.287 OA
ENDBRANCH  10  13
ENDBRANCH   9  10
ENDBRANCH   1   9
TORSDOF 5
REMARK  Name = ../refined-set-2016/4ca6/4ca6_pocket.pdb
REMARK  298 active torsions:
REMARK  status: ('A' for Active; 'I' for Inactive)
REMARK    1  A    between atoms: _1  and  _3
REMARK    2  A    between atoms: _3  and  _4
REMARK    3  A    between atoms: _3  and  _6
REMARK    4  A    between atoms: _6  and  _7
REMARK    5  A    between atoms: _10  and  _12
REMARK    6  A    between atoms: _12  and  _13
REMARK    7  A    between atoms: _12  and  _15
REMARK    8  A    between atoms: _15  and  _16
REMARK    9  A    between atoms: _18  and  _20
REMARK   10  A    between atoms: _20  and  _21
REMARK   11  A    between atoms: _20  and  _23
REMARK   12  A    between atoms: _23  and  _24
REMARK   13  A    between atoms: _29  and  _30
REMARK   14  A    between atoms: _32  and  _34
REMARK   15  A    between atoms: _34  and  _35
REMARK   16  A    between atoms: _34  and  _37
REMARK   17  A    between atoms: _37  and  _38
REMARK   18  A    between atoms: _48  and  _50
REMARK   19  A    between atoms: _50  and  _51
REMARK   20  A    between atoms: _50  and  _53
REMARK   21  A    between atoms: _53  and  _54
REMARK   22  A    between atoms: _57  and  _59
REMARK   23  A    between atoms: _59  and  _60
REMARK   24  A    between atoms: _59  and  _62
REMARK   25  A    between atoms: _62  and  _63
REMARK   26  A    between atoms: _73  and  _75
REMARK   27  A    between atoms: _75  and  _76
REMARK   28  A    between atoms: _75  and  _78
REMARK   29  A    between atoms: _78  and  _79
REMARK   30  A    between atoms: _79  and  _80
REMARK   31  A    between atoms: _85  and  _87
REMARK   32  A    between atoms: _87  and  _88
REMARK   33  A    between atoms: _87  and  _90
REMARK   34  A    between atoms: _90  and  _91
REMARK   35  A    between atoms: _93  and  _95
REMARK   36  A    between atoms: _95  and  _96
REMARK   37  A    between atoms: _95  and  _98
REMARK   38  A    between atoms: _98  and  _99
REMARK   39  A    between atoms: _99  and  _100
REMARK   40  A    between atoms: _103  and  _105
REMARK   41  A    between atoms: _105  and  _106
REMARK   42  A    between atoms: _105  and  _108
REMARK   43  A    between atoms: _111  and  _113
REMARK   44  A    between atoms: _113  and  _114
REMARK   45  A    between atoms: _113  and  _116
REMARK   46  A    between atoms: _118  and  _120
REMARK   47  A    between atoms: _120  and  _121
REMARK   48  A    between atoms: _120  and  _123
REMARK   49  A    between atoms: _123  and  _124
REMARK   50  A    between atoms: _129  and  _131
REMARK   51  A    between atoms: _131  and  _132
REMARK   52  A    between atoms: _135  and  _137
REMARK   53  A    between atoms: _137  and  _138
REMARK   54  A    between atoms: _137  and  _140
REMARK   55  A    between atoms: _140  and  _141
REMARK   56  A    between atoms: _143  and  _145
REMARK   57  A    between atoms: _145  and  _146
REMARK   58  A    between atoms: _149  and  _151
REMARK   59  A    between atoms: _151  and  _152
REMARK   60  A    between atoms: _151  and  _154
REMARK   61  A    between atoms: _154  and  _155
REMARK   62  A    between atoms: _165  and  _167
REMARK   63  A    between atoms: _167  and  _168
REMARK   64  A    between atoms: _167  and  _170
REMARK   65  A    between atoms: _170  and  _171
REMARK   66  A    between atoms: _174  and  _176
REMARK   67  A    between atoms: _176  and  _177
REMARK   68  A    between atoms: _176  and  _179
REMARK   69  A    between atoms: _179  and  _180
REMARK   70  A    between atoms: _185  and  _186
REMARK   71  A    between atoms: _188  and  _190
REMARK   72  A    between atoms: _190  and  _191
REMARK   73  A    between atoms: _190  and  _193
REMARK   74  A    between atoms: _193  and  _194
REMARK   75  A    between atoms: _194  and  _195
REMARK   76  A    between atoms: _195  and  _196
REMARK   77  A    between atoms: _205  and  _207
REMARK   78  A    between atoms: _207  and  _208
REMARK   79  A    between atoms: _207  and  _210
REMARK   80  A    between atoms: _210  and  _211
REMARK   81  A    between atoms: _214  and  _216
REMARK   82  A    between atoms: _216  and  _217
REMARK   83  A    between atoms: _216  and  _219
REMARK   84  A    between atoms: _219  and  _220
REMARK   85  A    between atoms: _220  and  _221
REMARK   86  A    between atoms: _221  and  _222
REMARK   87  A    between atoms: _222  and  _223
REMARK   88  A    between atoms: _227  and  _229
REMARK   89  A    between atoms: _229  and  _230
REMARK   90  A    between atoms: _229  and  _232
REMARK   91  A    between atoms: _232  and  _233
REMARK   92  A    between atoms: _233  and  _234
REMARK   93  A    between atoms: _239  and  _241
REMARK   94  A    between atoms: _241  and  _242
REMARK   95  A    between atoms: _241  and  _244
REMARK   96  A    between atoms: _244  and  _245
REMARK   97  A    between atoms: _245  and  _246
REMARK   98  A    between atoms: _246  and  _247
REMARK   99  A    between atoms: _256  and  _258
REMARK  100  A    between atoms: _258  and  _259
REMARK  101  A    between atoms: _258  and  _261
REMARK  102  A    between atoms: _261  and  _262
REMARK  103  A    between atoms: _262  and  _263
REMARK  104  A    between atoms: _265  and  _267
REMARK  105  A    between atoms: _267  and  _268
REMARK  106  A    between atoms: _267  and  _270
REMARK  107  A    between atoms: _270  and  _271
REMARK  108  A    between atoms: _274  and  _276
REMARK  109  A    between atoms: _276  and  _277
REMARK  110  A    between atoms: _276  and  _279
REMARK  111  A    between atoms: _279  and  _280
REMARK  112  A    between atoms: _280  and  _281
REMARK  113  A    between atoms: _286  and  _288
REMARK  114  A    between atoms: _288  and  _289
REMARK  115  A    between atoms: _288  and  _291
REMARK  116  A    between atoms: _291  and  _292
REMARK  117  A    between atoms: _295  and  _297
REMARK  118  A    between atoms: _297  and  _298
REMARK  119  A    between atoms: _297  and  _300
REMARK  120  A    between atoms: _300  and  _301
REMARK  121  A    between atoms: _303  and  _305
REMARK  122  A    between atoms: _305  and  _306
REMARK  123  A    between atoms: _305  and  _308
REMARK  124  A    between atoms: _308  and  _309
REMARK  125  A    between atoms: _312  and  _314
REMARK  126  A    between atoms: _314  and  _315
REMARK  127  A    between atoms: _314  and  _317
REMARK  128  A    between atoms: _320  and  _322
REMARK  129  A    between atoms: _322  and  _323
REMARK  130  A    between atoms: _322  and  _325
REMARK  131  A    between atoms: _325  and  _326
REMARK  132  A    between atoms: _331  and  _333
REMARK  133  A    between atoms: _344  and  _347
REMARK  134  A    between atoms: _347  and  _348
REMARK  135  A    between atoms: _348  and  _349
REMARK  136  A    between atoms: _354  and  _357
REMARK  137  A    between atoms: _357  and  _358
REMARK  138  A    between atoms: _358  and  _359
REMARK  139  A    between atoms: _368  and  _369
REMARK  140  A    between atoms: _377  and  _379
REMARK  141  A    between atoms: _379  and  _380
REMARK  142  A    between atoms: _379  and  _382
REMARK  143  A    between atoms: _382  and  _383
REMARK  144  A    between atoms: _386  and  _388
REMARK  145  A    between atoms: _388  and  _389
REMARK  146  A    between atoms: _388  and  _391
REMARK  147  A    between atoms: _391  and  _392
REMARK  148  A    between atoms: _397  and  _398
REMARK  149  A    between atoms: _400  and  _402
REMARK  150  A    between atoms: _402  and  _403
REMARK  151  A    between atoms: _402  and  _405
REMARK  152  A    between atoms: _405  and  _406
REMARK  153  A    between atoms: _411  and  _412
REMARK  154  A    between atoms: _414  and  _416
REMARK  155  A    between atoms: _416  and  _417
REMARK  156  A    between atoms: _416  and  _419
REMARK  157  A    between atoms: _419  and  _420
REMARK  158  A    between atoms: _425  and  _426
REMARK  159  A    between atoms: _428  and  _430
REMARK  160  A    between atoms: _430  and  _431
REMARK  161  A    between atoms: _430  and  _433
REMARK  162  A    between atoms: _433  and  _434
REMARK  163  A    between atoms: _434  and  _435
REMARK  164  A    between atoms: _435  and  _436
REMARK  165  A    between atoms: _445  and  _447
REMARK  166  A    between atoms: _447  and  _448
REMARK  167  A    between atoms: _447  and  _450
REMARK  168  A    between atoms: _450  and  _451
REMARK  169  A    between atoms: _451  and  _452
REMARK  170  A    between atoms: _452  and  _453
REMARK  171  A    between atoms: _462  and  _464
REMARK  172  A    between atoms: _464  and  _465
REMARK  173  A    between atoms: _467  and  _469
REMARK  174  A    between atoms: _469  and  _470
REMARK  175  A    between atoms: _473  and  _475
REMARK  176  A    between atoms: _475  and  _476
REMARK  177  A    between atoms: _475  and  _478
REMARK  178  A    between atoms: _478  and  _479
REMARK  179  A    between atoms: _485  and  _486
REMARK  180  A    between atoms: _491  and  _493
REMARK  181  A    between atoms: _493  and  _494
REMARK  182  A    between atoms: _496  and  _498
REMARK  183  A    between atoms: _498  and  _499
REMARK  184  A    between atoms: _498  and  _501
REMARK  185  A    between atoms: _501  and  _502
REMARK  186  A    between atoms: _508  and  _510
REMARK  187  A    between atoms: _510  and  _511
REMARK  188  A    between atoms: _510  and  _513
REMARK  189  A    between atoms: _513  and  _514
REMARK  190  A    between atoms: _519  and  _521
REMARK  191  A    between atoms: _521  and  _522
REMARK  192  A    between atoms: _521  and  _524
REMARK  193  A    between atoms: _524  and  _525
REMARK  194  A    between atoms: _525  and  _526
REMARK  195  A    between atoms: _526  and  _527
REMARK  196  A    between atoms: _527  and  ZN_792
REMARK  197  A    between atoms: _529  and  _531
REMARK  198  A    between atoms: _531  and  _532
REMARK  199  A    between atoms: _535  and  _537
REMARK  200  A    between atoms: _537  and  _538
REMARK  201  A    between atoms: _540  and  _542
REMARK  202  A    between atoms: _542  and  _543
REMARK  203  A    between atoms: _542  and  _545
REMARK  204  A    between atoms: _545  and  _546
REMARK  205  A    between atoms: _549  and  _551
REMARK  206  A    between atoms: _551  and  _552
REMARK  207  A    between atoms: _551  and  _554
REMARK  208  A    between atoms: _557  and  _559
REMARK  209  A    between atoms: _559  and  _560
REMARK  210  A    between atoms: _563  and  _565
REMARK  211  A    between atoms: _565  and  _566
REMARK  212  A    between atoms: _565  and  _568
REMARK  213  A    between atoms: _568  and  _569
REMARK  214  A    between atoms: _572  and  _574
REMARK  215  A    between atoms: _574  and  _575
REMARK  216  A    between atoms: _574  and  _577
REMARK  217  A    between atoms: _577  and  _578
REMARK  218  A    between atoms: _578  and  _579
REMARK  219  A    between atoms: _582  and  _584
REMARK  220  A    between atoms: _584  and  _585
REMARK  221  A    between atoms: _584  and  _587
REMARK  222  A    between atoms: _587  and  _588
REMARK  223  A    between atoms: _588  and  _589
REMARK  224  A    between atoms: _589  and  _590
REMARK  225  A    between atoms: _590  and  _591
REMARK  226  A    between atoms: _595  and  _597
REMARK  227  A    between atoms: _597  and  _598
REMARK  228  A    between atoms: _597  and  _600
REMARK  229  A    between atoms: _600  and  _601
REMARK  230  A    between atoms: _607  and  _609
REMARK  231  A    between atoms: _609  and  _610
REMARK  232  A    between atoms: _609  and  _612
REMARK  233  A    between atoms: _612  and  _613
REMARK  234  A    between atoms: _619  and  _621
REMARK  235  A    between atoms: _621  and  _622
REMARK  236  A    between atoms: _624  and  _626
REMARK  237  A    between atoms: _626  and  _627
REMARK  238  A    between atoms: _626  and  _629
REMARK  239  A    between atoms: _632  and  _634
REMARK  240  A    between atoms: _634  and  _635
REMARK  241  A    between atoms: _634  and  _637
REMARK  242  A    between atoms: _637  and  _638
REMARK  243  A    between atoms: _638  and  _639
REMARK  244  A    between atoms: _639  and  _640
REMARK  245  A    between atoms: _640  and  _641
REMARK  246  A    between atoms: _645  and  _647
REMARK  247  A    between atoms: _647  and  _648
REMARK  248  A    between atoms: _647  and  _650
REMARK  249  A    between atoms: _650  and  _651
REMARK  250  A    between atoms: _657  and  _659
REMARK  251  A    between atoms: _659  and  _660
REMARK  252  A    between atoms: _659  and  _662
REMARK  253  A    between atoms: _662  and  _663
REMARK  254  A    between atoms: _668  and  _670
REMARK  255  A    between atoms: _670  and  _671
REMARK  256  A    between atoms: _670  and  _673
REMARK  257  A    between atoms: _673  and  _674
REMARK  258  A    between atoms: _679  and  _681
REMARK  259  A    between atoms: _681  and  _682
REMARK  260  A    between atoms: _681  and  _684
REMARK  261  A    between atoms: _687  and  _689
REMARK  262  A    between atoms: _689  and  _690
REMARK  263  A    between atoms: _689  and  _692
REMARK  264  A    between atoms: _692  and  _693
REMARK  265  A    between atoms: _697  and  _698
REMARK  266  A    between atoms: _703  and  _705
REMARK  267  A    between atoms: _705  and  _706
REMARK  268  A    between atoms: _705  and  _708
REMARK  269  A    between atoms: _708  and  _709
REMARK  270  A    between atoms: _714  and  _715
REMARK  271  A    between atoms: _717  and  _719
REMARK  272  A    between atoms: _719  and  _720
REMARK  273  A    between atoms: _719  and  _722
REMARK  274  A    between atoms: _722  and  _723
REMARK  275  A    between atoms: _723  and  _724
REMARK  276  A    between atoms: _724  and  _725
REMARK  277  A    between atoms: _734  and  _736
REMARK  278  A    between atoms: _736  and  _737
REMARK  279  A    between atoms: _736  and  _739
REMARK  280  A    between atoms: _739  and  _740
REMARK  281  A    between atoms: _745  and  _746
REMARK  282  A    between atoms: _748  and  _750
REMARK  283  A    between atoms: _750  and  _751
REMARK  284  A    between atoms: _750  and  _753
REMARK  285  A    between atoms: _753  and  _754
REMARK  286  A    between atoms: _760  and  _762
REMARK  287  A    between atoms: _762  and  _763
REMARK  288  A    between atoms: _762  and  _765
REMARK  289  A    between atoms: _765  and  _766
REMARK  290  A    between atoms: _768  and  _770
REMARK  291  A    between atoms: _770  and  _771
REMARK  292  A    between atoms: _770  and  _773
REMARK  293  A    between atoms: _773  and  _774
REMARK  294  A    between atoms: _780  and  _782
REMARK  295  A    between atoms: _782  and  _783
REMARK  296  A    between atoms: _782  and  _785
REMARK  297  A    between atoms: _785  and  _786
REMARK  298  A    between atoms: _786  and  _787
REMARK                            x       y       z     vdW  Elec       q    Type
REMARK                         _______ _______ _______ _____ _____    ______ ____
ROOT
ATOM      1  CG  TRP A   1     -10.369 -18.756 -10.326  0.00  0.00    -0.002 A 
ATOM      2  CD1 TRP A   1     -11.718 -18.761 -10.111  0.00  0.00    +0.068 A 
ATOM      3  NE1 TRP A   1     -12.351 -17.992 -11.053  0.00  0.00    -0.352 N 
ATOM      4  HE1 TRP A   1     -13.375 -17.816 -11.097  0.00  0.00    +0.166 HD
ATOM      5  CE2 TRP A   1     -11.423 -17.492 -11.926  0.00  0.00    +0.056 A 
ATOM      6  CZ2 TRP A   1     -11.589 -16.664 -13.058  0.00  0.00    +0.017 A 
ATOM      7  CH2 TRP A   1     -10.464 -16.308 -13.759  0.00  0.00    +0.001 A 
ATOM      8  CZ3 TRP A   1      -9.187 -16.753 -13.362  0.00  0.00    +0.000 A 
ATOM      9  CE3 TRP A   1      -9.021 -17.573 -12.232  0.00  0.00    +0.001 A 
ATOM     10  CD2 TRP A   1     -10.157 -17.952 -11.501  0.00  0.00    +0.013 A 
ENDROOT
BRANCH   1  11
ATOM     11  CB  TRP A   1      -9.318 -19.483  -9.528  0.00  0.00    +0.053 C 
BRANCH  11  12
ATOM     12  CA  TRP A   1      -9.773 -20.005  -8.151  0.00  0.00    +0.137 C 
BRANCH  12  13
ATOM     13  N   TRP A   1     -10.170 -18.897  -7.264  0.00  0.00    -0.239 NA
ATOM     14  H   TRP A   1     -10.057 -17.924  -7.613  0.00  0.00    +0.142 HD
ENDBRANCH  12  13
BRANCH  12  15
ATOM     15  C   TRP A   1      -8.642 -20.851  -7.559  0.00  0.00    +0.224 C 
ATOM     16  O   TRP A   1      -8.356 -21.946  -8.047  0.00  0.00    -0.287 OA
ENDBRANCH  12  15
ENDBRANCH  11  12
ENDBRANCH   1  11
TORSDOF 4
REMARK  Name = ../refined-set-2016/4ca6/4ca6_pocket.pdb
REMARK  298 active torsions:
REMARK  status: ('A' for Active; 'I' for Inactive)
REMARK    1  A    between atoms: _1  and  _3
REMARK    2  A    between atoms: _3  and  _4
REMARK    3  A    between atoms: _3  and  _6
REMARK    4  A    between atoms: _6  and  _7
REMARK    5  A    between atoms: _10  and  _12
REMARK    6  A    between atoms: _12  and  _13
REMARK    7  A    between atoms: _12  and  _15
REMARK    8  A    between atoms: _15  and  _16
REMARK    9  A    between atoms: _18  and  _20
REMARK   10  A    between atoms: _20  and  _21
REMARK   11  A    between atoms: _20  and  _23
REMARK   12  A    between atoms: _23  and  _24
REMARK   13  A    between atoms: _29  and  _30
REMARK   14  A    between atoms: _32  and  _34
REMARK   15  A    between atoms: _34  and  _35
REMARK   16  A    between atoms: _34  and  _37
REMARK   17  A    between atoms: _37  and  _38
REMARK   18  A    between atoms: _48  and  _50
REMARK   19  A    between atoms: _50  and  _51
REMARK   20  A    between atoms: _50  and  _53
REMARK   21  A    between atoms: _53  and  _54
REMARK   22  A    between atoms: _57  and  _59
REMARK   23  A    between atoms: _59  and  _60
REMARK   24  A    between atoms: _59  and  _62
REMARK   25  A    between atoms: _62  and  _63
REMARK   26  A    between atoms: _73  and  _75
REMARK   27  A    between atoms: _75  and  _76
REMARK   28  A    between atoms: _75  and  _78
REMARK   29  A    between atoms: _78  and  _79
REMARK   30  A    between atoms: _79  and  _80
REMARK   31  A    between atoms: _85  and  _87
REMARK   32  A    between atoms: _87  and  _88
REMARK   33  A    between atoms: _87  and  _90
REMARK   34  A    between atoms: _90  and  _91
REMARK   35  A    between atoms: _93  and  _95
REMARK   36  A    between atoms: _95  and  _96
REMARK   37  A    between atoms: _95  and  _98
REMARK   38  A    between atoms: _98  and  _99
REMARK   39  A    between atoms: _99  and  _100
REMARK   40  A    between atoms: _103  and  _105
REMARK   41  A    between atoms: _105  and  _106
REMARK   42  A    between atoms: _105  and  _108
REMARK   43  A    between atoms: _111  and  _113
REMARK   44  A    between atoms: _113  and  _114
REMARK   45  A    between atoms: _113  and  _116
REMARK   46  A    between atoms: _118  and  _120
REMARK   47  A    between atoms: _120  and  _121
REMARK   48  A    between atoms: _120  and  _123
REMARK   49  A    between atoms: _123  and  _124
REMARK   50  A    between atoms: _129  and  _131
REMARK   51  A    between atoms: _131  and  _132
REMARK   52  A    between atoms: _135  and  _137
REMARK   53  A    between atoms: _137  and  _138
REMARK   54  A    between atoms: _137  and  _140
REMARK   55  A    between atoms: _140  and  _141
REMARK   56  A    between atoms: _143  and  _145
REMARK   57  A    between atoms: _145  and  _146
REMARK   58  A    between atoms: _149  and  _151
REMARK   59  A    between atoms: _151  and  _152
REMARK   60  A    between atoms: _151  and  _154
REMARK   61  A    between atoms: _154  and  _155
REMARK   62  A    between atoms: _165  and  _167
REMARK   63  A    between atoms: _167  and  _168
REMARK   64  A    between atoms: _167  and  _170
REMARK   65  A    between atoms: _170  and  _171
REMARK   66  A    between atoms: _174  and  _176
REMARK   67  A    between atoms: _176  and  _177
REMARK   68  A    between atoms: _176  and  _179
REMARK   69  A    between atoms: _179  and  _180
REMARK   70  A    between atoms: _185  and  _186
REMARK   71  A    between atoms: _188  and  _190
REMARK   72  A    between atoms: _190  and  _191
REMARK   73  A    between atoms: _190  and  _193
REMARK   74  A    between atoms: _193  and  _194
REMARK   75  A    between atoms: _194  and  _195
REMARK   76  A    between atoms: _195  and  _196
REMARK   77  A    between atoms: _205  and  _207
REMARK   78  A    between atoms: _207  and  _208
REMARK   79  A    between atoms: _207  and  _210
REMARK   80  A    between atoms: _210  and  _211
REMARK   81  A    between atoms: _214  and  _216
REMARK   82  A    between atoms: _216  and  _217
REMARK   83  A    between atoms: _216  and  _219
REMARK   84  A    between atoms: _219  and  _220
REMARK   85  A    between atoms: _220  and  _221
REMARK   86  A    between atoms: _221  and  _222
REMARK   87  A    between atoms: _222  and  _223
REMARK   88  A    between atoms: _227  and  _229
REMARK   89  A    between atoms: _229  and  _230
REMARK   90  A    between atoms: _229  and  _232
REMARK   91  A    between atoms: _232  and  _233
REMARK   92  A    between atoms: _233  and  _234
REMARK   93  A    between atoms: _239  and  _241
REMARK   94  A    between atoms: _241  and  _242
REMARK   95  A    between atoms: _241  and  _244
REMARK   96  A    between atoms: _244  and  _245
REMARK   97  A    between atoms: _245  and  _246
REMARK   98  A    between atoms: _246  and  _247
REMARK   99  A    between atoms: _256  and  _258
REMARK  100  A    between atoms: _258  and  _259
REMARK  101  A    between atoms: _258  and  _261
REMARK  102  A    between atoms: _261  and  _262
REMARK  103  A    between atoms: _262  and  _263
REMARK  104  A    between atoms: _265  and  _267
REMARK  105  A    between atoms: _267  and  _268
REMARK  106  A    between atoms: _267  and  _270
REMARK  107  A    between atoms: _270  and  _271
REMARK  108  A    between atoms: _274  and  _276
REMARK  109  A    between atoms: _276  and  _277
REMARK  110  A    between atoms: _276  and  _279
REMARK  111  A    between atoms: _279  and  _280
REMARK  112  A    between atoms: _280  and  _281
REMARK  113  A    between atoms: _286  and  _288
REMARK  114  A    between atoms: _288  and  _289
REMARK  115  A    between atoms: _288  and  _291
REMARK  116  A    between atoms: _291  and  _292
REMARK  117  A    between atoms: _295  and  _297
REMARK  118  A    between atoms: _297  and  _298
REMARK  119  A    between atoms: _297  and  _300
REMARK  120  A    between atoms: _300  and  _301
REMARK  121  A    between atoms: _303  and  _305
REMARK  122  A    between atoms: _305  and  _306
REMARK  123  A    between atoms: _305  and  _308
REMARK  124  A    between atoms: _308  and  _309
REMARK  125  A    between atoms: _312  and  _314
REMARK  126  A    between atoms: _314  and  _315
REMARK  127  A    between atoms: _314  and  _317
REMARK  128  A    between atoms: _320  and  _322
REMARK  129  A    between atoms: _322  and  _323
REMARK  130  A    between atoms: _322  and  _325
REMARK  131  A    between atoms: _325  and  _326
REMARK  132  A    between atoms: _331  and  _333
REMARK  133  A    between atoms: _344  and  _347
REMARK  134  A    between atoms: _347  and  _348
REMARK  135  A    between atoms: _348  and  _349
REMARK  136  A    between atoms: _354  and  _357
REMARK  137  A    between atoms: _357  and  _358
REMARK  138  A    between atoms: _358  and  _359
REMARK  139  A    between atoms: _368  and  _369
REMARK  140  A    between atoms: _377  and  _379
REMARK  141  A    between atoms: _379  and  _380
REMARK  142  A    between atoms: _379  and  _382
REMARK  143  A    between atoms: _382  and  _383
REMARK  144  A    between atoms: _386  and  _388
REMARK  145  A    between atoms: _388  and  _389
REMARK  146  A    between atoms: _388  and  _391
REMARK  147  A    between atoms: _391  and  _392
REMARK  148  A    between atoms: _397  and  _398
REMARK  149  A    between atoms: _400  and  _402
REMARK  150  A    between atoms: _402  and  _403
REMARK  151  A    between atoms: _402  and  _405
REMARK  152  A    between atoms: _405  and  _406
REMARK  153  A    between atoms: _411  and  _412
REMARK  154  A    between atoms: _414  and  _416
REMARK  155  A    between atoms: _416  and  _417
REMARK  156  A    between atoms: _416  and  _419
REMARK  157  A    between atoms: _419  and  _420
REMARK  158  A    between atoms: _425  and  _426
REMARK  159  A    between atoms: _428  and  _430
REMARK  160  A    between atoms: _430  and  _431
REMARK  161  A    between atoms: _430  and  _433
REMARK  162  A    between atoms: _433  and  _434
REMARK  163  A    between atoms: _434  and  _435
REMARK  164  A    between atoms: _435  and  _436
REMARK  165  A    between atoms: _445  and  _447
REMARK  166  A    between atoms: _447  and  _448
REMARK  167  A    between atoms: _447  and  _450
REMARK  168  A    between atoms: _450  and  _451
REMARK  169  A    between atoms: _451  and  _452
REMARK  170  A    between atoms: _452  and  _453
REMARK  171  A    between atoms: _462  and  _464
REMARK  172  A    between atoms: _464  and  _465
REMARK  173  A    between atoms: _467  and  _469
REMARK  174  A    between atoms: _469  and  _470
REMARK  175  A    between atoms: _473  and  _475
REMARK  176  A    between atoms: _475  and  _476
REMARK  177  A    between atoms: _475  and  _478
REMARK  178  A    between atoms: _478  and  _479
REMARK  179  A    between atoms: _485  and  _486
REMARK  180  A    between atoms: _491  and  _493
REMARK  181  A    between atoms: _493  and  _494
REMARK  182  A    between atoms: _496  and  _498
REMARK  183  A    between atoms: _498  and  _499
REMARK  184  A    between atoms: _498  and  _501
REMARK  185  A    between atoms: _501  and  _502
REMARK  186  A    between atoms: _508  and  _510
REMARK  187  A    between atoms: _510  and  _511
REMARK  188  A    between atoms: _510  and  _513
REMARK  189  A    between atoms: _513  and  _514
REMARK  190  A    between atoms: _519  and  _521
REMARK  191  A    between atoms: _521  and  _522
REMARK  192  A    between atoms: _521  and  _524
REMARK  193  A    between atoms: _524  and  _525
REMARK  194  A    between atoms: _525  and  _526
REMARK  195  A    between atoms: _526  and  _527
REMARK  196  A    between atoms: _527  and  ZN_792
REMARK  197  A    between atoms: _529  and  _531
REMARK  198  A    between atoms: _531  and  _532
REMARK  199  A    between atoms: _535  and  _537
REMARK  200  A    between atoms: _537  and  _538
REMARK  201  A    between atoms: _540  and  _542
REMARK  202  A    between atoms: _542  and  _543
REMARK  203  A    between atoms: _542  and  _545
REMARK  204  A    between atoms: _545  and  _546
REMARK  205  A    between atoms: _549  and  _551
REMARK  206  A    between atoms: _551  and  _552
REMARK  207  A    between atoms: _551  and  _554
REMARK  208  A    between atoms: _557  and  _559
REMARK  209  A    between atoms: _559  and  _560
REMARK  210  A    between atoms: _563  and  _565
REMARK  211  A    between atoms: _565  and  _566
REMARK  212  A    between atoms: _565  and  _568
REMARK  213  A    between atoms: _568  and  _569
REMARK  214  A    between atoms: _572  and  _574
REMARK  215  A    between atoms: _574  and  _575
REMARK  216  A    between atoms: _574  and  _577
REMARK  217  A    between atoms: _577  and  _578
REMARK  218  A    between atoms: _578  and  _579
REMARK  219  A    between atoms: _582  and  _584
REMARK  220  A    between atoms: _584  and  _585
REMARK  221  A    between atoms: _584  and  _587
REMARK  222  A    between atoms: _587  and  _588
REMARK  223  A    between atoms: _588  and  _589
REMARK  224  A    between atoms: _589  and  _590
REMARK  225  A    between atoms: _590  and  _591
REMARK  226  A    between atoms: _595  and  _597
REMARK  227  A    between atoms: _597  and  _598
REMARK  228  A    between atoms: _597  and  _600
REMARK  229  A    between atoms: _600  and  _601
REMARK  230  A    between atoms: _607  and  _609
REMARK  231  A    between atoms: _609  and  _610
REMARK  232  A    between atoms: _609  and  _612
REMARK  233  A    between atoms: _612  and  _613
REMARK  234  A    between atoms: _619  and  _621
REMARK  235  A    between atoms: _621  and  _622
REMARK  236  A    between atoms: _624  and  _626
REMARK  237  A    between atoms: _626  and  _627
REMARK  238  A    between atoms: _626  and  _629
REMARK  239  A    between atoms: _632  and  _634
REMARK  240  A    between atoms: _634  and  _635
REMARK  241  A    between atoms: _634  and  _637
REMARK  242  A    between atoms: _637  and  _638
REMARK  243  A    between atoms: _638  and  _639
REMARK  244  A    between atoms: _639  and  _640
REMARK  245  A    between atoms: _640  and  _641
REMARK  246  A    between atoms: _645  and  _647
REMARK  247  A    between atoms: _647  and  _648
REMARK  248  A    between atoms: _647  and  _650
REMARK  249  A    between atoms: _650  and  _651
REMARK  250  A    between atoms: _657  and  _659
REMARK  251  A    between atoms: _659  and  _660
REMARK  252  A    between atoms: _659  and  _662
REMARK  253  A    between atoms: _662  and  _663
REMARK  254  A    between atoms: _668  and  _670
REMARK  255  A    between atoms: _670  and  _671
REMARK  256  A    between atoms: _670  and  _673
REMARK  257  A    between atoms: _673  and  _674
REMARK  258  A    between atoms: _679  and  _681
REMARK  259  A    between atoms: _681  and  _682
REMARK  260  A    between atoms: _681  and  _684
REMARK  261  A    between atoms: _687  and  _689
REMARK  262  A    between atoms: _689  and  _690
REMARK  263  A    between atoms: _689  and  _692
REMARK  264  A    between atoms: _692  and  _693
REMARK  265  A    between atoms: _697  and  _698
REMARK  266  A    between atoms: _703  and  _705
REMARK  267  A    between atoms: _705  and  _706
REMARK  268  A    between atoms: _705  and  _708
REMARK  269  A    between atoms: _708  and  _709
REMARK  270  A    between atoms: _714  and  _715
REMARK  271  A    between atoms: _717  and  _719
REMARK  272  A    between atoms: _719  and  _720
REMARK  273  A    between atoms: _719  and  _722
REMARK  274  A    between atoms: _722  and  _723
REMARK  275  A    between atoms: _723  and  _724
REMARK  276  A    between atoms: _724  and  _725
REMARK  277  A    between atoms: _734  and  _736
REMARK  278  A    between atoms: _736  and  _737
REMARK  279  A    between atoms: _736  and  _739
REMARK  280  A    between atoms: _739  and  _740
REMARK  281  A    between atoms: _745  and  _746
REMARK  282  A    between atoms: _748  and  _750
REMARK  283  A    between atoms: _750  and  _751
REMARK  284  A    between atoms: _750  and  _753
REMARK  285  A    between atoms: _753  and  _754
REMARK  286  A    between atoms: _760  and  _762
REMARK  287  A    between atoms: _762  and  _763
REMARK  288  A    between atoms: _762  and  _765
REMARK  289  A    between atoms: _765  and  _766
REMARK  290  A    between atoms: _768  and  _770
REMARK  291  A    between atoms: _770  and  _771
REMARK  292  A    between atoms: _770  and  _773
REMARK  293  A    between atoms: _773  and  _774
REMARK  294  A    between atoms: _780  and  _782
REMARK  295  A    between atoms: _782  and  _783
REMARK  296  A    between atoms: _782  and  _785
REMARK  297  A    between atoms: _785  and  _786
REMARK  298  A    between atoms: _786  and  _787
REMARK                            x       y       z     vdW  Elec       q    Type
REMARK                         _______ _______ _______ _____ _____    ______ ____
ROOT
ATOM      1  CA  ASP A   1      11.810  -6.213 -23.094  0.00  0.00    +0.144 C 
ENDROOT
BRANCH   1   2
ATOM      2  N   ASP A   1      13.218  -5.830 -23.013  0.00  0.00    -0.239 NA
ATOM      3  H   ASP A   1      13.497  -5.115 -22.311  0.00  0.00    +0.142 HD
ENDBRANCH   1   2
BRANCH   1   4
ATOM      4  C   ASP A   1      10.945  -4.966 -22.798  0.00  0.00    +0.225 C 
ATOM      5  O   ASP A   1      11.317  -4.143 -21.960  0.00  0.00    -0.287 OA
ENDBRANCH   1   4
BRANCH   1   6
ATOM      6  CB  ASP A   1      11.594  -7.302 -22.035  0.00  0.00    +0.139 C 
BRANCH   6   7
ATOM      7  CG  ASP A   1      10.171  -7.673 -21.859  0.00  0.00    +0.367 C 
ATOM      8  OD2 ASP A   1       9.513  -7.112 -20.959  0.00  0.00    -0.246 OA
ATOM      9  OD1 ASP A   1       9.708  -8.535 -22.624  0.00  0.00    -0.246 OA
ENDBRANCH   6   7
ENDBRANCH   1   6
TORSDOF 4
REMARK  Name = ../refined-set-2016/4ca6/4ca6_pocket.pdb
REMARK  298 active torsions:
REMARK  status: ('A' for Active; 'I' for Inactive)
REMARK    1  A    between atoms: _1  and  _3
REMARK    2  A    between atoms: _3  and  _4
REMARK    3  A    between atoms: _3  and  _6
REMARK    4  A    between atoms: _6  and  _7
REMARK    5  A    between atoms: _10  and  _12
REMARK    6  A    between atoms: _12  and  _13
REMARK    7  A    between atoms: _12  and  _15
REMARK    8  A    between atoms: _15  and  _16
REMARK    9  A    between atoms: _18  and  _20
REMARK   10  A    between atoms: _20  and  _21
REMARK   11  A    between atoms: _20  and  _23
REMARK   12  A    between atoms: _23  and  _24
REMARK   13  A    between atoms: _29  and  _30
REMARK   14  A    between atoms: _32  and  _34
REMARK   15  A    between atoms: _34  and  _35
REMARK   16  A    between atoms: _34  and  _37
REMARK   17  A    between atoms: _37  and  _38
REMARK   18  A    between atoms: _48  and  _50
REMARK   19  A    between atoms: _50  and  _51
REMARK   20  A    between atoms: _50  and  _53
REMARK   21  A    between atoms: _53  and  _54
REMARK   22  A    between atoms: _57  and  _59
REMARK   23  A    between atoms: _59  and  _60
REMARK   24  A    between atoms: _59  and  _62
REMARK   25  A    between atoms: _62  and  _63
REMARK   26  A    between atoms: _73  and  _75
REMARK   27  A    between atoms: _75  and  _76
REMARK   28  A    between atoms: _75  and  _78
REMARK   29  A    between atoms: _78  and  _79
REMARK   30  A    between atoms: _79  and  _80
REMARK   31  A    between atoms: _85  and  _87
REMARK   32  A    between atoms: _87  and  _88
REMARK   33  A    between atoms: _87  and  _90
REMARK   34  A    between atoms: _90  and  _91
REMARK   35  A    between atoms: _93  and  _95
REMARK   36  A    between atoms: _95  and  _96
REMARK   37  A    between atoms: _95  and  _98
REMARK   38  A    between atoms: _98  and  _99
REMARK   39  A    between atoms: _99  and  _100
REMARK   40  A    between atoms: _103  and  _105
REMARK   41  A    between atoms: _105  and  _106
REMARK   42  A    between atoms: _105  and  _108
REMARK   43  A    between atoms: _111  and  _113
REMARK   44  A    between atoms: _113  and  _114
REMARK   45  A    between atoms: _113  and  _116
REMARK   46  A    between atoms: _118  and  _120
REMARK   47  A    between atoms: _120  and  _121
REMARK   48  A    between atoms: _120  and  _123
REMARK   49  A    between atoms: _123  and  _124
REMARK   50  A    between atoms: _129  and  _131
REMARK   51  A    between atoms: _131  and  _132
REMARK   52  A    between atoms: _135  and  _137
REMARK   53  A    between atoms: _137  and  _138
REMARK   54  A    between atoms: _137  and  _140
REMARK   55  A    between atoms: _140  and  _141
REMARK   56  A    between atoms: _143  and  _145
REMARK   57  A    between atoms: _145  and  _146
REMARK   58  A    between atoms: _149  and  _151
REMARK   59  A    between atoms: _151  and  _152
REMARK   60  A    between atoms: _151  and  _154
REMARK   61  A    between atoms: _154  and  _155
REMARK   62  A    between atoms: _165  and  _167
REMARK   63  A    between atoms: _167  and  _168
REMARK   64  A    between atoms: _167  and  _170
REMARK   65  A    between atoms: _170  and  _171
REMARK   66  A    between atoms: _174  and  _176
REMARK   67  A    between atoms: _176  and  _177
REMARK   68  A    between atoms: _176  and  _179
REMARK   69  A    between atoms: _179  and  _180
REMARK   70  A    between atoms: _185  and  _186
REMARK   71  A    between atoms: _188  and  _190
REMARK   72  A    between atoms: _190  and  _191
REMARK   73  A    between atoms: _190  and  _193
REMARK   74  A    between atoms: _193  and  _194
REMARK   75  A    between atoms: _194  and  _195
REMARK   76  A    between atoms: _195  and  _196
REMARK   77  A    between atoms: _205  and  _207
REMARK   78  A    between atoms: _207  and  _208
REMARK   79  A    between atoms: _207  and  _210
REMARK   80  A    between atoms: _210  and  _211
REMARK   81  A    between atoms: _214  and  _216
REMARK   82  A    between atoms: _216  and  _217
REMARK   83  A    between atoms: _216  and  _219
REMARK   84  A    between atoms: _219  and  _220
REMARK   85  A    between atoms: _220  and  _221
REMARK   86  A    between atoms: _221  and  _222
REMARK   87  A    between atoms: _222  and  _223
REMARK   88  A    between atoms: _227  and  _229
REMARK   89  A    between atoms: _229  and  _230
REMARK   90  A    between atoms: _229  and  _232
REMARK   91  A    between atoms: _232  and  _233
REMARK   92  A    between atoms: _233  and  _234
REMARK   93  A    between atoms: _239  and  _241
REMARK   94  A    between atoms: _241  and  _242
REMARK   95  A    between atoms: _241  and  _244
REMARK   96  A    between atoms: _244  and  _245
REMARK   97  A    between atoms: _245  and  _246
REMARK   98  A    between atoms: _246  and  _247
REMARK   99  A    between atoms: _256  and  _258
REMARK  100  A    between atoms: _258  and  _259
REMARK  101  A    between atoms: _258  and  _261
REMARK  102  A    between atoms: _261  and  _262
REMARK  103  A    between atoms: _262  and  _263
REMARK  104  A    between atoms: _265  and  _267
REMARK  105  A    between atoms: _267  and  _268
REMARK  106  A    between atoms: _267  and  _270
REMARK  107  A    between atoms: _270  and  _271
REMARK  108  A    between atoms: _274  and  _276
REMARK  109  A    between atoms: _276  and  _277
REMARK  110  A    between atoms: _276  and  _279
REMARK  111  A    between atoms: _279  and  _280
REMARK  112  A    between atoms: _280  and  _281
REMARK  113  A    between atoms: _286  and  _288
REMARK  114  A    between atoms: _288  and  _289
REMARK  115  A    between atoms: _288  and  _291
REMARK  116  A    between atoms: _291  and  _292
REMARK  117  A    between atoms: _295  and  _297
REMARK  118  A    between atoms: _297  and  _298
REMARK  119  A    between atoms: _297  and  _300
REMARK  120  A    between atoms: _300  and  _301
REMARK  121  A    between atoms: _303  and  _305
REMARK  122  A    between atoms: _305  and  _306
REMARK  123  A    between atoms: _305  and  _308
REMARK  124  A    between atoms: _308  and  _309
REMARK  125  A    between atoms: _312  and  _314
REMARK  126  A    between atoms: _314  and  _315
REMARK  127  A    between atoms: _314  and  _317
REMARK  128  A    between atoms: _320  and  _322
REMARK  129  A    between atoms: _322  and  _323
REMARK  130  A    between atoms: _322  and  _325
REMARK  131  A    between atoms: _325  and  _326
REMARK  132  A    between atoms: _331  and  _333
REMARK  133  A    between atoms: _344  and  _347
REMARK  134  A    between atoms: _347  and  _348
REMARK  135  A    between atoms: _348  and  _349
REMARK  136  A    between atoms: _354  and  _357
REMARK  137  A    between atoms: _357  and  _358
REMARK  138  A    between atoms: _358  and  _359
REMARK  139  A    between atoms: _368  and  _369
REMARK  140  A    between atoms: _377  and  _379
REMARK  141  A    between atoms: _379  and  _380
REMARK  142  A    between atoms: _379  and  _382
REMARK  143  A    between atoms: _382  and  _383
REMARK  144  A    between atoms: _386  and  _388
REMARK  145  A    between atoms: _388  and  _389
REMARK  146  A    between atoms: _388  and  _391
REMARK  147  A    between atoms: _391  and  _392
REMARK  148  A    between atoms: _397  and  _398
REMARK  149  A    between atoms: _400  and  _402
REMARK  150  A    between atoms: _402  and  _403
REMARK  151  A    between atoms: _402  and  _405
REMARK  152  A    between atoms: _405  and  _406
REMARK  153  A    between atoms: _411  and  _412
REMARK  154  A    between atoms: _414  and  _416
REMARK  155  A    between atoms: _416  and  _417
REMARK  156  A    between atoms: _416  and  _419
REMARK  157  A    between atoms: _419  and  _420
REMARK  158  A    between atoms: _425  and  _426
REMARK  159  A    between atoms: _428  and  _430
REMARK  160  A    between atoms: _430  and  _431
REMARK  161  A    between atoms: _430  and  _433
REMARK  162  A    between atoms: _433  and  _434
REMARK  163  A    between atoms: _434  and  _435
REMARK  164  A    between atoms: _435  and  _436
REMARK  165  A    between atoms: _445  and  _447
REMARK  166  A    between atoms: _447  and  _448
REMARK  167  A    between atoms: _447  and  _450
REMARK  168  A    between atoms: _450  and  _451
REMARK  169  A    between atoms: _451  and  _452
REMARK  170  A    between atoms: _452  and  _453
REMARK  171  A    between atoms: _462  and  _464
REMARK  172  A    between atoms: _464  and  _465
REMARK  173  A    between atoms: _467  and  _469
REMARK  174  A    between atoms: _469  and  _470
REMARK  175  A    between atoms: _473  and  _475
REMARK  176  A    between atoms: _475  and  _476
REMARK  177  A    between atoms: _475  and  _478
REMARK  178  A    between atoms: _478  and  _479
REMARK  179  A    between atoms: _485  and  _486
REMARK  180  A    between atoms: _491  and  _493
REMARK  181  A    between atoms: _493  and  _494
REMARK  182  A    between atoms: _496  and  _498
REMARK  183  A    between atoms: _498  and  _499
REMARK  184  A    between atoms: _498  and  _501
REMARK  185  A    between atoms: _501  and  _502
REMARK  186  A    between atoms: _508  and  _510
REMARK  187  A    between atoms: _510  and  _511
REMARK  188  A    between atoms: _510  and  _513
REMARK  189  A    between atoms: _513  and  _514
REMARK  190  A    between atoms: _519  and  _521
REMARK  191  A    between atoms: _521  and  _522
REMARK  192  A    between atoms: _521  and  _524
REMARK  193  A    between atoms: _524  and  _525
REMARK  194  A    between atoms: _525  and  _526
REMARK  195  A    between atoms: _526  and  _527
REMARK  196  A    between atoms: _527  and  ZN_792
REMARK  197  A    between atoms: _529  and  _531
REMARK  198  A    between atoms: _531  and  _532
REMARK  199  A    between atoms: _535  and  _537
REMARK  200  A    between atoms: _537  and  _538
REMARK  201  A    between atoms: _540  and  _542
REMARK  202  A    between atoms: _542  and  _543
REMARK  203  A    between atoms: _542  and  _545
REMARK  204  A    between atoms: _545  and  _546
REMARK  205  A    between atoms: _549  and  _551
REMARK  206  A    between atoms: _551  and  _552
REMARK  207  A    between atoms: _551  and  _554
REMARK  208  A    between atoms: _557  and  _559
REMARK  209  A    between atoms: _559  and  _560
REMARK  210  A    between atoms: _563  and  _565
REMARK  211  A    between atoms: _565  and  _566
REMARK  212  A    between atoms: _565  and  _568
REMARK  213  A    between atoms: _568  and  _569
REMARK  214  A    between atoms: _572  and  _574
REMARK  215  A    between atoms: _574  and  _575
REMARK  216  A    between atoms: _574  and  _577
REMARK  217  A    between atoms: _577  and  _578
REMARK  218  A    between atoms: _578  and  _579
REMARK  219  A    between atoms: _582  and  _584
REMARK  220  A    between atoms: _584  and  _585
REMARK  221  A    between atoms: _584  and  _587
REMARK  222  A    between atoms: _587  and  _588
REMARK  223  A    between atoms: _588  and  _589
REMARK  224  A    between atoms: _589  and  _590
REMARK  225  A    between atoms: _590  and  _591
REMARK  226  A    between atoms: _595  and  _597
REMARK  227  A    between atoms: _597  and  _598
REMARK  228  A    between atoms: _597  and  _600
REMARK  229  A    between atoms: _600  and  _601
REMARK  230  A    between atoms: _607  and  _609
REMARK  231  A    between atoms: _609  and  _610
REMARK  232  A    between atoms: _609  and  _612
REMARK  233  A    between atoms: _612  and  _613
REMARK  234  A    between atoms: _619  and  _621
REMARK  235  A    between atoms: _621  and  _622
REMARK  236  A    between atoms: _624  and  _626
REMARK  237  A    between atoms: _626  and  _627
REMARK  238  A    between atoms: _626  and  _629
REMARK  239  A    between atoms: _632  and  _634
REMARK  240  A    between atoms: _634  and  _635
REMARK  241  A    between atoms: _634  and  _637
REMARK  242  A    between atoms: _637  and  _638
REMARK  243  A    between atoms: _638  and  _639
REMARK  244  A    between atoms: _639  and  _640
REMARK  245  A    between atoms: _640  and  _641
REMARK  246  A    between atoms: _645  and  _647
REMARK  247  A    between atoms: _647  and  _648
REMARK  248  A    between atoms: _647  and  _650
REMARK  249  A    between atoms: _650  and  _651
REMARK  250  A    between atoms: _657  and  _659
REMARK  251  A    between atoms: _659  and  _660
REMARK  252  A    between atoms: _659  and  _662
REMARK  253  A    between atoms: _662  and  _663
REMARK  254  A    between atoms: _668  and  _670
REMARK  255  A    between atoms: _670  and  _671
REMARK  256  A    between atoms: _670  and  _673
REMARK  257  A    between atoms: _673  and  _674
REMARK  258  A    between atoms: _679  and  _681
REMARK  259  A    between atoms: _681  and  _682
REMARK  260  A    between atoms: _681  and  _684
REMARK  261  A    between atoms: _687  and  _689
REMARK  262  A    between atoms: _689  and  _690
REMARK  263  A    between atoms: _689  and  _692
REMARK  264  A    between atoms: _692  and  _693
REMARK  265  A    between atoms: _697  and  _698
REMARK  266  A    between atoms: _703  and  _705
REMARK  267  A    between atoms: _705  and  _706
REMARK  268  A    between atoms: _705  and  _708
REMARK  269  A    between atoms: _708  and  _709
REMARK  270  A    between atoms: _714  and  _715
REMARK  271  A    between atoms: _717  and  _719
REMARK  272  A    between atoms: _719  and  _720
REMARK  273  A    between atoms: _719  and  _722
REMARK  274  A    between atoms: _722  and  _723
REMARK  275  A    between atoms: _723  and  _724
REMARK  276  A    between atoms: _724  and  _725
REMARK  277  A    between atoms: _734  and  _736
REMARK  278  A    between atoms: _736  and  _737
REMARK  279  A    between atoms: _736  and  _739
REMARK  280  A    between atoms: _739  and  _740
REMARK  281  A    between atoms: _745  and  _746
REMARK  282  A    between atoms: _748  and  _750
REMARK  283  A    between atoms: _750  and  _751
REMARK  284  A    between atoms: _750  and  _753
REMARK  285  A    between atoms: _753  and  _754
REMARK  286  A    between atoms: _760  and  _762
REMARK  287  A    between atoms: _762  and  _763
REMARK  288  A    between atoms: _762  and  _765
REMARK  289  A    between atoms: _765  and  _766
REMARK  290  A    between atoms: _768  and  _770
REMARK  291  A    between atoms: _770  and  _771
REMARK  292  A    between atoms: _770  and  _773
REMARK  293  A    between atoms: _773  and  _774
REMARK  294  A    between atoms: _780  and  _782
REMARK  295  A    between atoms: _782  and  _783
REMARK  296  A    between atoms: _782  and  _785
REMARK  297  A    between atoms: _785  and  _786
REMARK  298  A    between atoms: _786  and  _787
REMARK                            x       y       z     vdW  Elec       q    Type
REMARK                         _______ _______ _______ _____ _____    ______ ____
ROOT
ATOM      1  CG  TRP A   1       5.724  -5.091 -20.511  0.00  0.00    -0.002 A 
ATOM      2  CD1 TRP A   1       4.774  -4.114 -20.404  0.00  0.00    +0.068 A 
ATOM      3  NE1 TRP A   1       4.040  -4.043 -21.560  0.00  0.00    -0.352 N 
ATOM      4  HE1 TRP A   1       3.245  -3.394 -21.731  0.00  0.00    +0.166 HD
ATOM      5  CE2 TRP A   1       4.521  -4.963 -22.454  0.00  0.00    +0.056 A 
ATOM      6  CZ2 TRP A   1       4.100  -5.258 -23.761  0.00  0.00    +0.017 A 
ATOM      7  CH2 TRP A   1       4.786  -6.242 -24.444  0.00  0.00    +0.001 A 
ATOM      8  CZ3 TRP A   1       5.869  -6.930 -23.853  0.00  0.00    +0.000 A 
ATOM      9  CE3 TRP A   1       6.282  -6.631 -22.539  0.00  0.00    +0.001 A 
ATOM     10  CD2 TRP A   1       5.594  -5.639 -21.827  0.00  0.00    +0.013 A 
ENDROOT
BRANCH   1  11
ATOM     11  CB  TRP A   1       6.758  -5.430 -19.515  0.00  0.00    +0.053 C 
BRANCH  11  12
ATOM     12  CA  TRP A   1       7.938  -4.452 -19.689  0.00  0.00    +0.137 C 
BRANCH  12  13
ATOM     13  N   TRP A   1       8.435  -4.499 -21.075  0.00  0.00    -0.239 NA
ATOM     14  H   TRP A   1       8.728  -5.415 -21.471  0.00  0.00    +0.142 HD
ENDBRANCH  12  13
BRANCH  12  15
ATOM     15  C   TRP A   1       9.017  -4.701 -18.646  0.00  0.00    +0.224 C 
ATOM     16  O   TRP A   1       8.704  -4.810 -17.450  0.00  0.00    -0.287 OA
ENDBRANCH  12  15
ENDBRANCH  11  12
ENDBRANCH   1  11
TORSDOF 4
REMARK  Name = ../refined-set-2016/4ca6/4ca6_pocket.pdb
REMARK  298 active torsions:
REMARK  status: ('A' for Active; 'I' for Inactive)
REMARK    1  A    between atoms: _1  and  _3
REMARK    2  A    between atoms: _3  and  _4
REMARK    3  A    between atoms: _3  and  _6
REMARK    4  A    between atoms: _6  and  _7
REMARK    5  A    between atoms: _10  and  _12
REMARK    6  A    between atoms: _12  and  _13
REMARK    7  A    between atoms: _12  and  _15
REMARK    8  A    between atoms: _15  and  _16
REMARK    9  A    between atoms: _18  and  _20
REMARK   10  A    between atoms: _20  and  _21
REMARK   11  A    between atoms: _20  and  _23
REMARK   12  A    between atoms: _23  and  _24
REMARK   13  A    between atoms: _29  and  _30
REMARK   14  A    between atoms: _32  and  _34
REMARK   15  A    between atoms: _34  and  _35
REMARK   16  A    between atoms: _34  and  _37
REMARK   17  A    between atoms: _37  and  _38
REMARK   18  A    between atoms: _48  and  _50
REMARK   19  A    between atoms: _50  and  _51
REMARK   20  A    between atoms: _50  and  _53
REMARK   21  A    between atoms: _53  and  _54
REMARK   22  A    between atoms: _57  and  _59
REMARK   23  A    between atoms: _59  and  _60
REMARK   24  A    between atoms: _59  and  _62
REMARK   25  A    between atoms: _62  and  _63
REMARK   26  A    between atoms: _73  and  _75
REMARK   27  A    between atoms: _75  and  _76
REMARK   28  A    between atoms: _75  and  _78
REMARK   29  A    between atoms: _78  and  _79
REMARK   30  A    between atoms: _79  and  _80
REMARK   31  A    between atoms: _85  and  _87
REMARK   32  A    between atoms: _87  and  _88
REMARK   33  A    between atoms: _87  and  _90
REMARK   34  A    between atoms: _90  and  _91
REMARK   35  A    between atoms: _93  and  _95
REMARK   36  A    between atoms: _95  and  _96
REMARK   37  A    between atoms: _95  and  _98
REMARK   38  A    between atoms: _98  and  _99
REMARK   39  A    between atoms: _99  and  _100
REMARK   40  A    between atoms: _103  and  _105
REMARK   41  A    between atoms: _105  and  _106
REMARK   42  A    between atoms: _105  and  _108
REMARK   43  A    between atoms: _111  and  _113
REMARK   44  A    between atoms: _113  and  _114
REMARK   45  A    between atoms: _113  and  _116
REMARK   46  A    between atoms: _118  and  _120
REMARK   47  A    between atoms: _120  and  _121
REMARK   48  A    between atoms: _120  and  _123
REMARK   49  A    between atoms: _123  and  _124
REMARK   50  A    between atoms: _129  and  _131
REMARK   51  A    between atoms: _131  and  _132
REMARK   52  A    between atoms: _135  and  _137
REMARK   53  A    between atoms: _137  and  _138
REMARK   54  A    between atoms: _137  and  _140
REMARK   55  A    between atoms: _140  and  _141
REMARK   56  A    between atoms: _143  and  _145
REMARK   57  A    between atoms: _145  and  _146
REMARK   58  A    between atoms: _149  and  _151
REMARK   59  A    between atoms: _151  and  _152
REMARK   60  A    between atoms: _151  and  _154
REMARK   61  A    between atoms: _154  and  _155
REMARK   62  A    between atoms: _165  and  _167
REMARK   63  A    between atoms: _167  and  _168
REMARK   64  A    between atoms: _167  and  _170
REMARK   65  A    between atoms: _170  and  _171
REMARK   66  A    between atoms: _174  and  _176
REMARK   67  A    between atoms: _176  and  _177
REMARK   68  A    between atoms: _176  and  _179
REMARK   69  A    between atoms: _179  and  _180
REMARK   70  A    between atoms: _185  and  _186
REMARK   71  A    between atoms: _188  and  _190
REMARK   72  A    between atoms: _190  and  _191
REMARK   73  A    between atoms: _190  and  _193
REMARK   74  A    between atoms: _193  and  _194
REMARK   75  A    between atoms: _194  and  _195
REMARK   76  A    between atoms: _195  and  _196
REMARK   77  A    between atoms: _205  and  _207
REMARK   78  A    between atoms: _207  and  _208
REMARK   79  A    between atoms: _207  and  _210
REMARK   80  A    between atoms: _210  and  _211
REMARK   81  A    between atoms: _214  and  _216
REMARK   82  A    between atoms: _216  and  _217
REMARK   83  A    between atoms: _216  and  _219
REMARK   84  A    between atoms: _219  and  _220
REMARK   85  A    between atoms: _220  and  _221
REMARK   86  A    between atoms: _221  and  _222
REMARK   87  A    between atoms: _222  and  _223
REMARK   88  A    between atoms: _227  and  _229
REMARK   89  A    between atoms: _229  and  _230
REMARK   90  A    between atoms: _229  and  _232
REMARK   91  A    between atoms: _232  and  _233
REMARK   92  A    between atoms: _233  and  _234
REMARK   93  A    between atoms: _239  and  _241
REMARK   94  A    between atoms: _241  and  _242
REMARK   95  A    between atoms: _241  and  _244
REMARK   96  A    between atoms: _244  and  _245
REMARK   97  A    between atoms: _245  and  _246
REMARK   98  A    between atoms: _246  and  _247
REMARK   99  A    between atoms: _256  and  _258
REMARK  100  A    between atoms: _258  and  _259
REMARK  101  A    between atoms: _258  and  _261
REMARK  102  A    between atoms: _261  and  _262
REMARK  103  A    between atoms: _262  and  _263
REMARK  104  A    between atoms: _265  and  _267
REMARK  105  A    between atoms: _267  and  _268
REMARK  106  A    between atoms: _267  and  _270
REMARK  107  A    between atoms: _270  and  _271
REMARK  108  A    between atoms: _274  and  _276
REMARK  109  A    between atoms: _276  and  _277
REMARK  110  A    between atoms: _276  and  _279
REMARK  111  A    between atoms: _279  and  _280
REMARK  112  A    between atoms: _280  and  _281
REMARK  113  A    between atoms: _286  and  _288
REMARK  114  A    between atoms: _288  and  _289
REMARK  115  A    between atoms: _288  and  _291
REMARK  116  A    between atoms: _291  and  _292
REMARK  117  A    between atoms: _295  and  _297
REMARK  118  A    between atoms: _297  and  _298
REMARK  119  A    between atoms: _297  and  _300
REMARK  120  A    between atoms: _300  and  _301
REMARK  121  A    between atoms: _303  and  _305
REMARK  122  A    between atoms: _305  and  _306
REMARK  123  A    between atoms: _305  and  _308
REMARK  124  A    between atoms: _308  and  _309
REMARK  125  A    between atoms: _312  and  _314
REMARK  126  A    between atoms: _314  and  _315
REMARK  127  A    between atoms: _314  and  _317
REMARK  128  A    between atoms: _320  and  _322
REMARK  129  A    between atoms: _322  and  _323
REMARK  130  A    between atoms: _322  and  _325
REMARK  131  A    between atoms: _325  and  _326
REMARK  132  A    between atoms: _331  and  _333
REMARK  133  A    between atoms: _344  and  _347
REMARK  134  A    between atoms: _347  and  _348
REMARK  135  A    between atoms: _348  and  _349
REMARK  136  A    between atoms: _354  and  _357
REMARK  137  A    between atoms: _357  and  _358
REMARK  138  A    between atoms: _358  and  _359
REMARK  139  A    between atoms: _368  and  _369
REMARK  140  A    between atoms: _377  and  _379
REMARK  141  A    between atoms: _379  and  _380
REMARK  142  A    between atoms: _379  and  _382
REMARK  143  A    between atoms: _382  and  _383
REMARK  144  A    between atoms: _386  and  _388
REMARK  145  A    between atoms: _388  and  _389
REMARK  146  A    between atoms: _388  and  _391
REMARK  147  A    between atoms: _391  and  _392
REMARK  148  A    between atoms: _397  and  _398
REMARK  149  A    between atoms: _400  and  _402
REMARK  150  A    between atoms: _402  and  _403
REMARK  151  A    between atoms: _402  and  _405
REMARK  152  A    between atoms: _405  and  _406
REMARK  153  A    between atoms: _411  and  _412
REMARK  154  A    between atoms: _414  and  _416
REMARK  155  A    between atoms: _416  and  _417
REMARK  156  A    between atoms: _416  and  _419
REMARK  157  A    between atoms: _419  and  _420
REMARK  158  A    between atoms: _425  and  _426
REMARK  159  A    between atoms: _428  and  _430
REMARK  160  A    between atoms: _430  and  _431
REMARK  161  A    between atoms: _430  and  _433
REMARK  162  A    between atoms: _433  and  _434
REMARK  163  A    between atoms: _434  and  _435
REMARK  164  A    between atoms: _435  and  _436
REMARK  165  A    between atoms: _445  and  _447
REMARK  166  A    between atoms: _447  and  _448
REMARK  167  A    between atoms: _447  and  _450
REMARK  168  A    between atoms: _450  and  _451
REMARK  169  A    between atoms: _451  and  _452
REMARK  170  A    between atoms: _452  and  _453
REMARK  171  A    between atoms: _462  and  _464
REMARK  172  A    between atoms: _464  and  _465
REMARK  173  A    between atoms: _467  and  _469
REMARK  174  A    between atoms: _469  and  _470
REMARK  175  A    between atoms: _473  and  _475
REMARK  176  A    between atoms: _475  and  _476
REMARK  177  A    between atoms: _475  and  _478
REMARK  178  A    between atoms: _478  and  _479
REMARK  179  A    between atoms: _485  and  _486
REMARK  180  A    between atoms: _491  and  _493
REMARK  181  A    between atoms: _493  and  _494
REMARK  182  A    between atoms: _496  and  _498
REMARK  183  A    between atoms: _498  and  _499
REMARK  184  A    between atoms: _498  and  _501
REMARK  185  A    between atoms: _501  and  _502
REMARK  186  A    between atoms: _508  and  _510
REMARK  187  A    between atoms: _510  and  _511
REMARK  188  A    between atoms: _510  and  _513
REMARK  189  A    between atoms: _513  and  _514
REMARK  190  A    between atoms: _519  and  _521
REMARK  191  A    between atoms: _521  and  _522
REMARK  192  A    between atoms: _521  and  _524
REMARK  193  A    between atoms: _524  and  _525
REMARK  194  A    between atoms: _525  and  _526
REMARK  195  A    between atoms: _526  and  _527
REMARK  196  A    between atoms: _527  and  ZN_792
REMARK  197  A    between atoms: _529  and  _531
REMARK  198  A    between atoms: _531  and  _532
REMARK  199  A    between atoms: _535  and  _537
REMARK  200  A    between atoms: _537  and  _538
REMARK  201  A    between atoms: _540  and  _542
REMARK  202  A    between atoms: _542  and  _543
REMARK  203  A    between atoms: _542  and  _545
REMARK  204  A    between atoms: _545  and  _546
REMARK  205  A    between atoms: _549  and  _551
REMARK  206  A    between atoms: _551  and  _552
REMARK  207  A    between atoms: _551  and  _554
REMARK  208  A    between atoms: _557  and  _559
REMARK  209  A    between atoms: _559  and  _560
REMARK  210  A    between atoms: _563  and  _565
REMARK  211  A    between atoms: _565  and  _566
REMARK  212  A    between atoms: _565  and  _568
REMARK  213  A    between atoms: _568  and  _569
REMARK  214  A    between atoms: _572  and  _574
REMARK  215  A    between atoms: _574  and  _575
REMARK  216  A    between atoms: _574  and  _577
REMARK  217  A    between atoms: _577  and  _578
REMARK  218  A    between atoms: _578  and  _579
REMARK  219  A    between atoms: _582  and  _584
REMARK  220  A    between atoms: _584  and  _585
REMARK  221  A    between atoms: _584  and  _587
REMARK  222  A    between atoms: _587  and  _588
REMARK  223  A    between atoms: _588  and  _589
REMARK  224  A    between atoms: _589  and  _590
REMARK  225  A    between atoms: _590  and  _591
REMARK  226  A    between atoms: _595  and  _597
REMARK  227  A    between atoms: _597  and  _598
REMARK  228  A    between atoms: _597  and  _600
REMARK  229  A    between atoms: _600  and  _601
REMARK  230  A    between atoms: _607  and  _609
REMARK  231  A    between atoms: _609  and  _610
REMARK  232  A    between atoms: _609  and  _612
REMARK  233  A    between atoms: _612  and  _613
REMARK  234  A    between atoms: _619  and  _621
REMARK  235  A    between atoms: _621  and  _622
REMARK  236  A    between atoms: _624  and  _626
REMARK  237  A    between atoms: _626  and  _627
REMARK  238  A    between atoms: _626  and  _629
REMARK  239  A    between atoms: _632  and  _634
REMARK  240  A    between atoms: _634  and  _635
REMARK  241  A    between atoms: _634  and  _637
REMARK  242  A    between atoms: _637  and  _638
REMARK  243  A    between atoms: _638  and  _639
REMARK  244  A    between atoms: _639  and  _640
REMARK  245  A    between atoms: _640  and  _641
REMARK  246  A    between atoms: _645  and  _647
REMARK  247  A    between atoms: _647  and  _648
REMARK  248  A    between atoms: _647  and  _650
REMARK  249  A    between atoms: _650  and  _651
REMARK  250  A    between atoms: _657  and  _659
REMARK  251  A    between atoms: _659  and  _660
REMARK  252  A    between atoms: _659  and  _662
REMARK  253  A    between atoms: _662  and  _663
REMARK  254  A    between atoms: _668  and  _670
REMARK  255  A    between atoms: _670  and  _671
REMARK  256  A    between atoms: _670  and  _673
REMARK  257  A    between atoms: _673  and  _674
REMARK  258  A    between atoms: _679  and  _681
REMARK  259  A    between atoms: _681  and  _682
REMARK  260  A    between atoms: _681  and  _684
REMARK  261  A    between atoms: _687  and  _689
REMARK  262  A    between atoms: _689  and  _690
REMARK  263  A    between atoms: _689  and  _692
REMARK  264  A    between atoms: _692  and  _693
REMARK  265  A    between atoms: _697  and  _698
REMARK  266  A    between atoms: _703  and  _705
REMARK  267  A    between atoms: _705  and  _706
REMARK  268  A    between atoms: _705  and  _708
REMARK  269  A    between atoms: _708  and  _709
REMARK  270  A    between atoms: _714  and  _715
REMARK  271  A    between atoms: _717  and  _719
REMARK  272  A    between atoms: _719  and  _720
REMARK  273  A    between atoms: _719  and  _722
REMARK  274  A    between atoms: _722  and  _723
REMARK  275  A    between atoms: _723  and  _724
REMARK  276  A    between atoms: _724  and  _725
REMARK  277  A    between atoms: _734  and  _736
REMARK  278  A    between atoms: _736  and  _737
REMARK  279  A    between atoms: _736  and  _739
REMARK  280  A    between atoms: _739  and  _740
REMARK  281  A    between atoms: _745  and  _746
REMARK  282  A    between atoms: _748  and  _750
REMARK  283  A    between atoms: _750  and  _751
REMARK  284  A    between atoms: _750  and  _753
REMARK  285  A    between atoms: _753  and  _754
REMARK  286  A    between atoms: _760  and  _762
REMARK  287  A    between atoms: _762  and  _763
REMARK  288  A    between atoms: _762  and  _765
REMARK  289  A    between atoms: _765  and  _766
REMARK  290  A    between atoms: _768  and  _770
REMARK  291  A    between atoms: _770  and  _771
REMARK  292  A    between atoms: _770  and  _773
REMARK  293  A    between atoms: _773  and  _774
REMARK  294  A    between atoms: _780  and  _782
REMARK  295  A    between atoms: _782  and  _783
REMARK  296  A    between atoms: _782  and  _785
REMARK  297  A    between atoms: _785  and  _786
REMARK  298  A    between atoms: _786  and  _787
REMARK                            x       y       z     vdW  Elec       q    Type
REMARK                         _______ _______ _______ _____ _____    ______ ____
ROOT
ATOM      1  CA  GLN A   1       9.812  -8.520 -17.407  0.00  0.00    +0.145 C 
ENDROOT
BRANCH   1   2
ATOM      2  C   GLN A   1      10.679  -9.763 -17.605  0.00  0.00    +0.238 C 
ATOM      3  O   GLN A   1      10.653 -10.660 -16.776  0.00  0.00    -0.274 OA
ATOM      4  N   SER A   2      11.414  -9.824 -18.714  0.00  0.00    -0.296 N 
ATOM      5  H   SER A   2      11.267  -9.105 -19.451  0.00  0.00    +0.150 HD
BRANCH   4   6
ATOM      6  CA  SER A   2      12.423 -10.865 -18.938  0.00  0.00    +0.166 C 
BRANCH   6   7
ATOM      7  CB  SER A   2      13.664 -10.124 -19.390  0.00  0.00    +0.229 C 
ATOM      8  OG  SER A   2      13.564  -9.178 -20.173  0.00  0.00    -0.286 OA
ENDBRANCH   6   7
BRANCH   6   9
ATOM      9  C   SER A   2      11.976 -11.854 -20.024  0.00  0.00    +0.165 C 
BRANCH   9  10
ATOM     10  O   SER A   2      13.089 -12.536 -20.604  0.00  0.00    -0.380 OA
ATOM     11  H   SER A   2      12.765 -13.163 -21.298  0.00  0.00    +0.211 HD
ENDBRANCH   9  10
ENDBRANCH   6   9
ENDBRANCH   4   6
ENDBRANCH   1   2
BRANCH   1  12
ATOM     12  N   GLN A   1      10.300  -7.327 -18.116  0.00  0.00    -0.238 NA
ATOM     13  H   GLN A   1      10.018  -7.162 -19.103  0.00  0.00    +0.142 HD
ENDBRANCH   1  12
BRANCH   1  14
ATOM     14  CB  GLN A   1       8.358  -8.835 -17.787  0.00  0.00    +0.036 C 
BRANCH  14  15
ATOM     15  CG  GLN A   1       8.222  -9.567 -19.109  0.00  0.00    +0.087 C 
BRANCH  15  16
ATOM     16  CD  GLN A   1       6.790  -9.767 -19.524  0.00  0.00    +0.219 C 
ATOM     17  OE1 GLN A   1       6.019  -8.807 -19.622  0.00  0.00    -0.275 OA
ATOM     18  NE2 GLN A   1       6.423 -11.015 -19.790  0.00  0.00    -0.329 N 
ATOM     19 HE21 GLN A   1       7.109 -11.791 -19.693  0.00  0.00    +0.145 HD
ATOM     20 HE22 GLN A   1       5.450 -11.217 -20.096  0.00  0.00    +0.145 HD
ENDBRANCH  15  16
ENDBRANCH  14  15
ENDBRANCH   1  14
TORSDOF 9
REMARK  Name = ../refined-set-2016/4ca6/4ca6_pocket.pdb
REMARK  298 active torsions:
REMARK  status: ('A' for Active; 'I' for Inactive)
REMARK    1  A    between atoms: _1  and  _3
REMARK    2  A    between atoms: _3  and  _4
REMARK    3  A    between atoms: _3  and  _6
REMARK    4  A    between atoms: _6  and  _7
REMARK    5  A    between atoms: _10  and  _12
REMARK    6  A    between atoms: _12  and  _13
REMARK    7  A    between atoms: _12  and  _15
REMARK    8  A    between atoms: _15  and  _16
REMARK    9  A    between atoms: _18  and  _20
REMARK   10  A    between atoms: _20  and  _21
REMARK   11  A    between atoms: _20  and  _23
REMARK   12  A    between atoms: _23  and  _24
REMARK   13  A    between atoms: _29  and  _30
REMARK   14  A    between atoms: _32  and  _34
REMARK   15  A    between atoms: _34  and  _35
REMARK   16  A    between atoms: _34  and  _37
REMARK   17  A    between atoms: _37  and  _38
REMARK   18  A    between atoms: _48  and  _50
REMARK   19  A    between atoms: _50  and  _51
REMARK   20  A    between atoms: _50  and  _53
REMARK   21  A    between atoms: _53  and  _54
REMARK   22  A    between atoms: _57  and  _59
REMARK   23  A    between atoms: _59  and  _60
REMARK   24  A    between atoms: _59  and  _62
REMARK   25  A    between atoms: _62  and  _63
REMARK   26  A    between atoms: _73  and  _75
REMARK   27  A    between atoms: _75  and  _76
REMARK   28  A    between atoms: _75  and  _78
REMARK   29  A    between atoms: _78  and  _79
REMARK   30  A    between atoms: _79  and  _80
REMARK   31  A    between atoms: _85  and  _87
REMARK   32  A    between atoms: _87  and  _88
REMARK   33  A    between atoms: _87  and  _90
REMARK   34  A    between atoms: _90  and  _91
REMARK   35  A    between atoms: _93  and  _95
REMARK   36  A    between atoms: _95  and  _96
REMARK   37  A    between atoms: _95  and  _98
REMARK   38  A    between atoms: _98  and  _99
REMARK   39  A    between atoms: _99  and  _100
REMARK   40  A    between atoms: _103  and  _105
REMARK   41  A    between atoms: _105  and  _106
REMARK   42  A    between atoms: _105  and  _108
REMARK   43  A    between atoms: _111  and  _113
REMARK   44  A    between atoms: _113  and  _114
REMARK   45  A    between atoms: _113  and  _116
REMARK   46  A    between atoms: _118  and  _120
REMARK   47  A    between atoms: _120  and  _121
REMARK   48  A    between atoms: _120  and  _123
REMARK   49  A    between atoms: _123  and  _124
REMARK   50  A    between atoms: _129  and  _131
REMARK   51  A    between atoms: _131  and  _132
REMARK   52  A    between atoms: _135  and  _137
REMARK   53  A    between atoms: _137  and  _138
REMARK   54  A    between atoms: _137  and  _140
REMARK   55  A    between atoms: _140  and  _141
REMARK   56  A    between atoms: _143  and  _145
REMARK   57  A    between atoms: _145  and  _146
REMARK   58  A    between atoms: _149  and  _151
REMARK   59  A    between atoms: _151  and  _152
REMARK   60  A    between atoms: _151  and  _154
REMARK   61  A    between atoms: _154  and  _155
REMARK   62  A    between atoms: _165  and  _167
REMARK   63  A    between atoms: _167  and  _168
REMARK   64  A    between atoms: _167  and  _170
REMARK   65  A    between atoms: _170  and  _171
REMARK   66  A    between atoms: _174  and  _176
REMARK   67  A    between atoms: _176  and  _177
REMARK   68  A    between atoms: _176  and  _179
REMARK   69  A    between atoms: _179  and  _180
REMARK   70  A    between atoms: _185  and  _186
REMARK   71  A    between atoms: _188  and  _190
REMARK   72  A    between atoms: _190  and  _191
REMARK   73  A    between atoms: _190  and  _193
REMARK   74  A    between atoms: _193  and  _194
REMARK   75  A    between atoms: _194  and  _195
REMARK   76  A    between atoms: _195  and  _196
REMARK   77  A    between atoms: _205  and  _207
REMARK   78  A    between atoms: _207  and  _208
REMARK   79  A    between atoms: _207  and  _210
REMARK   80  A    between atoms: _210  and  _211
REMARK   81  A    between atoms: _214  and  _216
REMARK   82  A    between atoms: _216  and  _217
REMARK   83  A    between atoms: _216  and  _219
REMARK   84  A    between atoms: _219  and  _220
REMARK   85  A    between atoms: _220  and  _221
REMARK   86  A    between atoms: _221  and  _222
REMARK   87  A    between atoms: _222  and  _223
REMARK   88  A    between atoms: _227  and  _229
REMARK   89  A    between atoms: _229  and  _230
REMARK   90  A    between atoms: _229  and  _232
REMARK   91  A    between atoms: _232  and  _233
REMARK   92  A    between atoms: _233  and  _234
REMARK   93  A    between atoms: _239  and  _241
REMARK   94  A    between atoms: _241  and  _242
REMARK   95  A    between atoms: _241  and  _244
REMARK   96  A    between atoms: _244  and  _245
REMARK   97  A    between atoms: _245  and  _246
REMARK   98  A    between atoms: _246  and  _247
REMARK   99  A    between atoms: _256  and  _258
REMARK  100  A    between atoms: _258  and  _259
REMARK  101  A    between atoms: _258  and  _261
REMARK  102  A    between atoms: _261  and  _262
REMARK  103  A    between atoms: _262  and  _263
REMARK  104  A    between atoms: _265  and  _267
REMARK  105  A    between atoms: _267  and  _268
REMARK  106  A    between atoms: _267  and  _270
REMARK  107  A    between atoms: _270  and  _271
REMARK  108  A    between atoms: _274  and  _276
REMARK  109  A    between atoms: _276  and  _277
REMARK  110  A    between atoms: _276  and  _279
REMARK  111  A    between atoms: _279  and  _280
REMARK  112  A    between atoms: _280  and  _281
REMARK  113  A    between atoms: _286  and  _288
REMARK  114  A    between atoms: _288  and  _289
REMARK  115  A    between atoms: _288  and  _291
REMARK  116  A    between atoms: _291  and  _292
REMARK  117  A    between atoms: _295  and  _297
REMARK  118  A    between atoms: _297  and  _298
REMARK  119  A    between atoms: _297  and  _300
REMARK  120  A    between atoms: _300  and  _301
REMARK  121  A    between atoms: _303  and  _305
REMARK  122  A    between atoms: _305  and  _306
REMARK  123  A    between atoms: _305  and  _308
REMARK  124  A    between atoms: _308  and  _309
REMARK  125  A    between atoms: _312  and  _314
REMARK  126  A    between atoms: _314  and  _315
REMARK  127  A    between atoms: _314  and  _317
REMARK  128  A    between atoms: _320  and  _322
REMARK  129  A    between atoms: _322  and  _323
REMARK  130  A    between atoms: _322  and  _325
REMARK  131  A    between atoms: _325  and  _326
REMARK  132  A    between atoms: _331  and  _333
REMARK  133  A    between atoms: _344  and  _347
REMARK  134  A    between atoms: _347  and  _348
REMARK  135  A    between atoms: _348  and  _349
REMARK  136  A    between atoms: _354  and  _357
REMARK  137  A    between atoms: _357  and  _358
REMARK  138  A    between atoms: _358  and  _359
REMARK  139  A    between atoms: _368  and  _369
REMARK  140  A    between atoms: _377  and  _379
REMARK  141  A    between atoms: _379  and  _380
REMARK  142  A    between atoms: _379  and  _382
REMARK  143  A    between atoms: _382  and  _383
REMARK  144  A    between atoms: _386  and  _388
REMARK  145  A    between atoms: _388  and  _389
REMARK  146  A    between atoms: _388  and  _391
REMARK  147  A    between atoms: _391  and  _392
REMARK  148  A    between atoms: _397  and  _398
REMARK  149  A    between atoms: _400  and  _402
REMARK  150  A    between atoms: _402  and  _403
REMARK  151  A    between atoms: _402  and  _405
REMARK  152  A    between atoms: _405  and  _406
REMARK  153  A    between atoms: _411  and  _412
REMARK  154  A    between atoms: _414  and  _416
REMARK  155  A    between atoms: _416  and  _417
REMARK  156  A    between atoms: _416  and  _419
REMARK  157  A    between atoms: _419  and  _420
REMARK  158  A    between atoms: _425  and  _426
REMARK  159  A    between atoms: _428  and  _430
REMARK  160  A    between atoms: _430  and  _431
REMARK  161  A    between atoms: _430  and  _433
REMARK  162  A    between atoms: _433  and  _434
REMARK  163  A    between atoms: _434  and  _435
REMARK  164  A    between atoms: _435  and  _436
REMARK  165  A    between atoms: _445  and  _447
REMARK  166  A    between atoms: _447  and  _448
REMARK  167  A    between atoms: _447  and  _450
REMARK  168  A    between atoms: _450  and  _451
REMARK  169  A    between atoms: _451  and  _452
REMARK  170  A    between atoms: _452  and  _453
REMARK  171  A    between atoms: _462  and  _464
REMARK  172  A    between atoms: _464  and  _465
REMARK  173  A    between atoms: _467  and  _469
REMARK  174  A    between atoms: _469  and  _470
REMARK  175  A    between atoms: _473  and  _475
REMARK  176  A    between atoms: _475  and  _476
REMARK  177  A    between atoms: _475  and  _478
REMARK  178  A    between atoms: _478  and  _479
REMARK  179  A    between atoms: _485  and  _486
REMARK  180  A    between atoms: _491  and  _493
REMARK  181  A    between atoms: _493  and  _494
REMARK  182  A    between atoms: _496  and  _498
REMARK  183  A    between atoms: _498  and  _499
REMARK  184  A    between atoms: _498  and  _501
REMARK  185  A    between atoms: _501  and  _502
REMARK  186  A    between atoms: _508  and  _510
REMARK  187  A    between atoms: _510  and  _511
REMARK  188  A    between atoms: _510  and  _513
REMARK  189  A    between atoms: _513  and  _514
REMARK  190  A    between atoms: _519  and  _521
REMARK  191  A    between atoms: _521  and  _522
REMARK  192  A    between atoms: _521  and  _524
REMARK  193  A    between atoms: _524  and  _525
REMARK  194  A    between atoms: _525  and  _526
REMARK  195  A    between atoms: _526  and  _527
REMARK  196  A    between atoms: _527  and  ZN_792
REMARK  197  A    between atoms: _529  and  _531
REMARK  198  A    between atoms: _531  and  _532
REMARK  199  A    between atoms: _535  and  _537
REMARK  200  A    between atoms: _537  and  _538
REMARK  201  A    between atoms: _540  and  _542
REMARK  202  A    between atoms: _542  and  _543
REMARK  203  A    between atoms: _542  and  _545
REMARK  204  A    between atoms: _545  and  _546
REMARK  205  A    between atoms: _549  and  _551
REMARK  206  A    between atoms: _551  and  _552
REMARK  207  A    between atoms: _551  and  _554
REMARK  208  A    between atoms: _557  and  _559
REMARK  209  A    between atoms: _559  and  _560
REMARK  210  A    between atoms: _563  and  _565
REMARK  211  A    between atoms: _565  and  _566
REMARK  212  A    between atoms: _565  and  _568
REMARK  213  A    between atoms: _568  and  _569
REMARK  214  A    between atoms: _572  and  _574
REMARK  215  A    between atoms: _574  and  _575
REMARK  216  A    between atoms: _574  and  _577
REMARK  217  A    between atoms: _577  and  _578
REMARK  218  A    between atoms: _578  and  _579
REMARK  219  A    between atoms: _582  and  _584
REMARK  220  A    between atoms: _584  and  _585
REMARK  221  A    between atoms: _584  and  _587
REMARK  222  A    between atoms: _587  and  _588
REMARK  223  A    between atoms: _588  and  _589
REMARK  224  A    between atoms: _589  and  _590
REMARK  225  A    between atoms: _590  and  _591
REMARK  226  A    between atoms: _595  and  _597
REMARK  227  A    between atoms: _597  and  _598
REMARK  228  A    between atoms: _597  and  _600
REMARK  229  A    between atoms: _600  and  _601
REMARK  230  A    between atoms: _607  and  _609
REMARK  231  A    between atoms: _609  and  _610
REMARK  232  A    between atoms: _609  and  _612
REMARK  233  A    between atoms: _612  and  _613
REMARK  234  A    between atoms: _619  and  _621
REMARK  235  A    between atoms: _621  and  _622
REMARK  236  A    between atoms: _624  and  _626
REMARK  237  A    between atoms: _626  and  _627
REMARK  238  A    between atoms: _626  and  _629
REMARK  239  A    between atoms: _632  and  _634
REMARK  240  A    between atoms: _634  and  _635
REMARK  241  A    between atoms: _634  and  _637
REMARK  242  A    between atoms: _637  and  _638
REMARK  243  A    between atoms: _638  and  _639
REMARK  244  A    between atoms: _639  and  _640
REMARK  245  A    between atoms: _640  and  _641
REMARK  246  A    between atoms: _645  and  _647
REMARK  247  A    between atoms: _647  and  _648
REMARK  248  A    between atoms: _647  and  _650
REMARK  249  A    between atoms: _650  and  _651
REMARK  250  A    between atoms: _657  and  _659
REMARK  251  A    between atoms: _659  and  _660
REMARK  252  A    between atoms: _659  and  _662
REMARK  253  A    between atoms: _662  and  _663
REMARK  254  A    between atoms: _668  and  _670
REMARK  255  A    between atoms: _670  and  _671
REMARK  256  A    between atoms: _670  and  _673
REMARK  257  A    between atoms: _673  and  _674
REMARK  258  A    between atoms: _679  and  _681
REMARK  259  A    between atoms: _681  and  _682
REMARK  260  A    between atoms: _681  and  _684
REMARK  261  A    between atoms: _687  and  _689
REMARK  262  A    between atoms: _689  and  _690
REMARK  263  A    between atoms: _689  and  _692
REMARK  264  A    between atoms: _692  and  _693
REMARK  265  A    between atoms: _697  and  _698
REMARK  266  A    between atoms: _703  and  _705
REMARK  267  A    between atoms: _705  and  _706
REMARK  268  A    between atoms: _705  and  _708
REMARK  269  A    between atoms: _708  and  _709
REMARK  270  A    between atoms: _714  and  _715
REMARK  271  A    between atoms: _717  and  _719
REMARK  272  A    between atoms: _719  and  _720
REMARK  273  A    between atoms: _719  and  _722
REMARK  274  A    between atoms: _722  and  _723
REMARK  275  A    between atoms: _723  and  _724
REMARK  276  A    between atoms: _724  and  _725
REMARK  277  A    between atoms: _734  and  _736
REMARK  278  A    between atoms: _736  and  _737
REMARK  279  A    between atoms: _736  and  _739
REMARK  280  A    between atoms: _739  and  _740
REMARK  281  A    between atoms: _745  and  _746
REMARK  282  A    between atoms: _748  and  _750
REMARK  283  A    between atoms: _750  and  _751
REMARK  284  A    between atoms: _750  and  _753
REMARK  285  A    between atoms: _753  and  _754
REMARK  286  A    between atoms: _760  and  _762
REMARK  287  A    between atoms: _762  and  _763
REMARK  288  A    between atoms: _762  and  _765
REMARK  289  A    between atoms: _765  and  _766
REMARK  290  A    between atoms: _768  and  _770
REMARK  291  A    between atoms: _770  and  _771
REMARK  292  A    between atoms: _770  and  _773
REMARK  293  A    between atoms: _773  and  _774
REMARK  294  A    between atoms: _780  and  _782
REMARK  295  A    between atoms: _782  and  _783
REMARK  296  A    between atoms: _782  and  _785
REMARK  297  A    between atoms: _785  and  _786
REMARK  298  A    between atoms: _786  and  _787
REMARK                            x       y       z     vdW  Elec       q    Type
REMARK                         _______ _______ _______ _____ _____    ______ ____
ROOT
ATOM      1  CA  GLU A   1      17.238 -12.579 -21.623  0.00  0.00    +0.134 C 
ENDROOT
BRANCH   1   2
ATOM      2  N   GLU A   1      16.432 -11.714 -20.737  0.00  0.00    -0.239 NA
ATOM      3  H   GLU A   1      15.441 -11.966 -20.545  0.00  0.00    +0.142 HD
ENDBRANCH   1   2
BRANCH   1   4
ATOM      4  C   GLU A   1      17.958 -11.841 -22.777  0.00  0.00    +0.224 C 
ATOM      5  O   GLU A   1      19.085 -12.204 -23.139  0.00  0.00    -0.287 OA
ENDBRANCH   1   4
BRANCH   1   6
ATOM      6  CB  GLU A   1      16.419 -13.768 -22.158  0.00  0.00    +0.037 C 
BRANCH   6   7
ATOM      7  CG  GLU A   1      15.140 -13.416 -22.919  0.00  0.00    +0.116 C 
BRANCH   7   8
ATOM      8  CD  GLU A   1      15.325 -13.131 -24.405  0.00  0.00    +0.365 C 
ATOM      9  OE2 GLU A   1      14.424 -12.487 -24.998  0.00  0.00    -0.246 OA
ATOM     10  OE1 GLU A   1      16.346 -13.546 -25.003  0.00  0.00    -0.246 OA
ENDBRANCH   7   8
ENDBRANCH   6   7
ENDBRANCH   1   6
TORSDOF 5
REMARK  Name = ../refined-set-2016/4ca6/4ca6_pocket.pdb
REMARK  298 active torsions:
REMARK  status: ('A' for Active; 'I' for Inactive)
REMARK    1  A    between atoms: _1  and  _3
REMARK    2  A    between atoms: _3  and  _4
REMARK    3  A    between atoms: _3  and  _6
REMARK    4  A    between atoms: _6  and  _7
REMARK    5  A    between atoms: _10  and  _12
REMARK    6  A    between atoms: _12  and  _13
REMARK    7  A    between atoms: _12  and  _15
REMARK    8  A    between atoms: _15  and  _16
REMARK    9  A    between atoms: _18  and  _20
REMARK   10  A    between atoms: _20  and  _21
REMARK   11  A    between atoms: _20  and  _23
REMARK   12  A    between atoms: _23  and  _24
REMARK   13  A    between atoms: _29  and  _30
REMARK   14  A    between atoms: _32  and  _34
REMARK   15  A    between atoms: _34  and  _35
REMARK   16  A    between atoms: _34  and  _37
REMARK   17  A    between atoms: _37  and  _38
REMARK   18  A    between atoms: _48  and  _50
REMARK   19  A    between atoms: _50  and  _51
REMARK   20  A    between atoms: _50  and  _53
REMARK   21  A    between atoms: _53  and  _54
REMARK   22  A    between atoms: _57  and  _59
REMARK   23  A    between atoms: _59  and  _60
REMARK   24  A    between atoms: _59  and  _62
REMARK   25  A    between atoms: _62  and  _63
REMARK   26  A    between atoms: _73  and  _75
REMARK   27  A    between atoms: _75  and  _76
REMARK   28  A    between atoms: _75  and  _78
REMARK   29  A    between atoms: _78  and  _79
REMARK   30  A    between atoms: _79  and  _80
REMARK   31  A    between atoms: _85  and  _87
REMARK   32  A    between atoms: _87  and  _88
REMARK   33  A    between atoms: _87  and  _90
REMARK   34  A    between atoms: _90  and  _91
REMARK   35  A    between atoms: _93  and  _95
REMARK   36  A    between atoms: _95  and  _96
REMARK   37  A    between atoms: _95  and  _98
REMARK   38  A    between atoms: _98  and  _99
REMARK   39  A    between atoms: _99  and  _100
REMARK   40  A    between atoms: _103  and  _105
REMARK   41  A    between atoms: _105  and  _106
REMARK   42  A    between atoms: _105  and  _108
REMARK   43  A    between atoms: _111  and  _113
REMARK   44  A    between atoms: _113  and  _114
REMARK   45  A    between atoms: _113  and  _116
REMARK   46  A    between atoms: _118  and  _120
REMARK   47  A    between atoms: _120  and  _121
REMARK   48  A    between atoms: _120  and  _123
REMARK   49  A    between atoms: _123  and  _124
REMARK   50  A    between atoms: _129  and  _131
REMARK   51  A    between atoms: _131  and  _132
REMARK   52  A    between atoms: _135  and  _137
REMARK   53  A    between atoms: _137  and  _138
REMARK   54  A    between atoms: _137  and  _140
REMARK   55  A    between atoms: _140  and  _141
REMARK   56  A    between atoms: _143  and  _145
REMARK   57  A    between atoms: _145  and  _146
REMARK   58  A    between atoms: _149  and  _151
REMARK   59  A    between atoms: _151  and  _152
REMARK   60  A    between atoms: _151  and  _154
REMARK   61  A    between atoms: _154  and  _155
REMARK   62  A    between atoms: _165  and  _167
REMARK   63  A    between atoms: _167  and  _168
REMARK   64  A    between atoms: _167  and  _170
REMARK   65  A    between atoms: _170  and  _171
REMARK   66  A    between atoms: _174  and  _176
REMARK   67  A    between atoms: _176  and  _177
REMARK   68  A    between atoms: _176  and  _179
REMARK   69  A    between atoms: _179  and  _180
REMARK   70  A    between atoms: _185  and  _186
REMARK   71  A    between atoms: _188  and  _190
REMARK   72  A    between atoms: _190  and  _191
REMARK   73  A    between atoms: _190  and  _193
REMARK   74  A    between atoms: _193  and  _194
REMARK   75  A    between atoms: _194  and  _195
REMARK   76  A    between atoms: _195  and  _196
REMARK   77  A    between atoms: _205  and  _207
REMARK   78  A    between atoms: _207  and  _208
REMARK   79  A    between atoms: _207  and  _210
REMARK   80  A    between atoms: _210  and  _211
REMARK   81  A    between atoms: _214  and  _216
REMARK   82  A    between atoms: _216  and  _217
REMARK   83  A    between atoms: _216  and  _219
REMARK   84  A    between atoms: _219  and  _220
REMARK   85  A    between atoms: _220  and  _221
REMARK   86  A    between atoms: _221  and  _222
REMARK   87  A    between atoms: _222  and  _223
REMARK   88  A    between atoms: _227  and  _229
REMARK   89  A    between atoms: _229  and  _230
REMARK   90  A    between atoms: _229  and  _232
REMARK   91  A    between atoms: _232  and  _233
REMARK   92  A    between atoms: _233  and  _234
REMARK   93  A    between atoms: _239  and  _241
REMARK   94  A    between atoms: _241  and  _242
REMARK   95  A    between atoms: _241  and  _244
REMARK   96  A    between atoms: _244  and  _245
REMARK   97  A    between atoms: _245  and  _246
REMARK   98  A    between atoms: _246  and  _247
REMARK   99  A    between atoms: _256  and  _258
REMARK  100  A    between atoms: _258  and  _259
REMARK  101  A    between atoms: _258  and  _261
REMARK  102  A    between atoms: _261  and  _262
REMARK  103  A    between atoms: _262  and  _263
REMARK  104  A    between atoms: _265  and  _267
REMARK  105  A    between atoms: _267  and  _268
REMARK  106  A    between atoms: _267  and  _270
REMARK  107  A    between atoms: _270  and  _271
REMARK  108  A    between atoms: _274  and  _276
REMARK  109  A    between atoms: _276  and  _277
REMARK  110  A    between atoms: _276  and  _279
REMARK  111  A    between atoms: _279  and  _280
REMARK  112  A    between atoms: _280  and  _281
REMARK  113  A    between atoms: _286  and  _288
REMARK  114  A    between atoms: _288  and  _289
REMARK  115  A    between atoms: _288  and  _291
REMARK  116  A    between atoms: _291  and  _292
REMARK  117  A    between atoms: _295  and  _297
REMARK  118  A    between atoms: _297  and  _298
REMARK  119  A    between atoms: _297  and  _300
REMARK  120  A    between atoms: _300  and  _301
REMARK  121  A    between atoms: _303  and  _305
REMARK  122  A    between atoms: _305  and  _306
REMARK  123  A    between atoms: _305  and  _308
REMARK  124  A    between atoms: _308  and  _309
REMARK  125  A    between atoms: _312  and  _314
REMARK  126  A    between atoms: _314  and  _315
REMARK  127  A    between atoms: _314  and  _317
REMARK  128  A    between atoms: _320  and  _322
REMARK  129  A    between atoms: _322  and  _323
REMARK  130  A    between atoms: _322  and  _325
REMARK  131  A    between atoms: _325  and  _326
REMARK  132  A    between atoms: _331  and  _333
REMARK  133  A    between atoms: _344  and  _347
REMARK  134  A    between atoms: _347  and  _348
REMARK  135  A    between atoms: _348  and  _349
REMARK  136  A    between atoms: _354  and  _357
REMARK  137  A    between atoms: _357  and  _358
REMARK  138  A    between atoms: _358  and  _359
REMARK  139  A    between atoms: _368  and  _369
REMARK  140  A    between atoms: _377  and  _379
REMARK  141  A    between atoms: _379  and  _380
REMARK  142  A    between atoms: _379  and  _382
REMARK  143  A    between atoms: _382  and  _383
REMARK  144  A    between atoms: _386  and  _388
REMARK  145  A    between atoms: _388  and  _389
REMARK  146  A    between atoms: _388  and  _391
REMARK  147  A    between atoms: _391  and  _392
REMARK  148  A    between atoms: _397  and  _398
REMARK  149  A    between atoms: _400  and  _402
REMARK  150  A    between atoms: _402  and  _403
REMARK  151  A    between atoms: _402  and  _405
REMARK  152  A    between atoms: _405  and  _406
REMARK  153  A    between atoms: _411  and  _412
REMARK  154  A    between atoms: _414  and  _416
REMARK  155  A    between atoms: _416  and  _417
REMARK  156  A    between atoms: _416  and  _419
REMARK  157  A    between atoms: _419  and  _420
REMARK  158  A    between atoms: _425  and  _426
REMARK  159  A    between atoms: _428  and  _430
REMARK  160  A    between atoms: _430  and  _431
REMARK  161  A    between atoms: _430  and  _433
REMARK  162  A    between atoms: _433  and  _434
REMARK  163  A    between atoms: _434  and  _435
REMARK  164  A    between atoms: _435  and  _436
REMARK  165  A    between atoms: _445  and  _447
REMARK  166  A    between atoms: _447  and  _448
REMARK  167  A    between atoms: _447  and  _450
REMARK  168  A    between atoms: _450  and  _451
REMARK  169  A    between atoms: _451  and  _452
REMARK  170  A    between atoms: _452  and  _453
REMARK  171  A    between atoms: _462  and  _464
REMARK  172  A    between atoms: _464  and  _465
REMARK  173  A    between atoms: _467  and  _469
REMARK  174  A    between atoms: _469  and  _470
REMARK  175  A    between atoms: _473  and  _475
REMARK  176  A    between atoms: _475  and  _476
REMARK  177  A    between atoms: _475  and  _478
REMARK  178  A    between atoms: _478  and  _479
REMARK  179  A    between atoms: _485  and  _486
REMARK  180  A    between atoms: _491  and  _493
REMARK  181  A    between atoms: _493  and  _494
REMARK  182  A    between atoms: _496  and  _498
REMARK  183  A    between atoms: _498  and  _499
REMARK  184  A    between atoms: _498  and  _501
REMARK  185  A    between atoms: _501  and  _502
REMARK  186  A    between atoms: _508  and  _510
REMARK  187  A    between atoms: _510  and  _511
REMARK  188  A    between atoms: _510  and  _513
REMARK  189  A    between atoms: _513  and  _514
REMARK  190  A    between atoms: _519  and  _521
REMARK  191  A    between atoms: _521  and  _522
REMARK  192  A    between atoms: _521  and  _524
REMARK  193  A    between atoms: _524  and  _525
REMARK  194  A    between atoms: _525  and  _526
REMARK  195  A    between atoms: _526  and  _527
REMARK  196  A    between atoms: _527  and  ZN_792
REMARK  197  A    between atoms: _529  and  _531
REMARK  198  A    between atoms: _531  and  _532
REMARK  199  A    between atoms: _535  and  _537
REMARK  200  A    between atoms: _537  and  _538
REMARK  201  A    between atoms: _540  and  _542
REMARK  202  A    between atoms: _542  and  _543
REMARK  203  A    between atoms: _542  and  _545
REMARK  204  A    between atoms: _545  and  _546
REMARK  205  A    between atoms: _549  and  _551
REMARK  206  A    between atoms: _551  and  _552
REMARK  207  A    between atoms: _551  and  _554
REMARK  208  A    between atoms: _557  and  _559
REMARK  209  A    between atoms: _559  and  _560
REMARK  210  A    between atoms: _563  and  _565
REMARK  211  A    between atoms: _565  and  _566
REMARK  212  A    between atoms: _565  and  _568
REMARK  213  A    between atoms: _568  and  _569
REMARK  214  A    between atoms: _572  and  _574
REMARK  215  A    between atoms: _574  and  _575
REMARK  216  A    between atoms: _574  and  _577
REMARK  217  A    between atoms: _577  and  _578
REMARK  218  A    between atoms: _578  and  _579
REMARK  219  A    between atoms: _582  and  _584
REMARK  220  A    between atoms: _584  and  _585
REMARK  221  A    between atoms: _584  and  _587
REMARK  222  A    between atoms: _587  and  _588
REMARK  223  A    between atoms: _588  and  _589
REMARK  224  A    between atoms: _589  and  _590
REMARK  225  A    between atoms: _590  and  _591
REMARK  226  A    between atoms: _595  and  _597
REMARK  227  A    between atoms: _597  and  _598
REMARK  228  A    between atoms: _597  and  _600
REMARK  229  A    between atoms: _600  and  _601
REMARK  230  A    between atoms: _607  and  _609
REMARK  231  A    between atoms: _609  and  _610
REMARK  232  A    between atoms: _609  and  _612
REMARK  233  A    between atoms: _612  and  _613
REMARK  234  A    between atoms: _619  and  _621
REMARK  235  A    between atoms: _621  and  _622
REMARK  236  A    between atoms: _624  and  _626
REMARK  237  A    between atoms: _626  and  _627
REMARK  238  A    between atoms: _626  and  _629
REMARK  239  A    between atoms: _632  and  _634
REMARK  240  A    between atoms: _634  and  _635
REMARK  241  A    between atoms: _634  and  _637
REMARK  242  A    between atoms: _637  and  _638
REMARK  243  A    between atoms: _638  and  _639
REMARK  244  A    between atoms: _639  and  _640
REMARK  245  A    between atoms: _640  and  _641
REMARK  246  A    between atoms: _645  and  _647
REMARK  247  A    between atoms: _647  and  _648
REMARK  248  A    between atoms: _647  and  _650
REMARK  249  A    between atoms: _650  and  _651
REMARK  250  A    between atoms: _657  and  _659
REMARK  251  A    between atoms: _659  and  _660
REMARK  252  A    between atoms: _659  and  _662
REMARK  253  A    between atoms: _662  and  _663
REMARK  254  A    between atoms: _668  and  _670
REMARK  255  A    between atoms: _670  and  _671
REMARK  256  A    between atoms: _670  and  _673
REMARK  257  A    between atoms: _673  and  _674
REMARK  258  A    between atoms: _679  and  _681
REMARK  259  A    between atoms: _681  and  _682
REMARK  260  A    between atoms: _681  and  _684
REMARK  261  A    between atoms: _687  and  _689
REMARK  262  A    between atoms: _689  and  _690
REMARK  263  A    between atoms: _689  and  _692
REMARK  264  A    between atoms: _692  and  _693
REMARK  265  A    between atoms: _697  and  _698
REMARK  266  A    between atoms: _703  and  _705
REMARK  267  A    between atoms: _705  and  _706
REMARK  268  A    between atoms: _705  and  _708
REMARK  269  A    between atoms: _708  and  _709
REMARK  270  A    between atoms: _714  and  _715
REMARK  271  A    between atoms: _717  and  _719
REMARK  272  A    between atoms: _719  and  _720
REMARK  273  A    between atoms: _719  and  _722
REMARK  274  A    between atoms: _722  and  _723
REMARK  275  A    between atoms: _723  and  _724
REMARK  276  A    between atoms: _724  and  _725
REMARK  277  A    between atoms: _734  and  _736
REMARK  278  A    between atoms: _736  and  _737
REMARK  279  A    between atoms: _736  and  _739
REMARK  280  A    between atoms: _739  and  _740
REMARK  281  A    between atoms: _745  and  _746
REMARK  282  A    between atoms: _748  and  _750
REMARK  283  A    between atoms: _750  and  _751
REMARK  284  A    between atoms: _750  and  _753
REMARK  285  A    between atoms: _753  and  _754
REMARK  286  A    between atoms: _760  and  _762
REMARK  287  A    between atoms: _762  and  _763
REMARK  288  A    between atoms: _762  and  _765
REMARK  289  A    between atoms: _765  and  _766
REMARK  290  A    between atoms: _768  and  _770
REMARK  291  A    between atoms: _770  and  _771
REMARK  292  A    between atoms: _770  and  _773
REMARK  293  A    between atoms: _773  and  _774
REMARK  294  A    between atoms: _780  and  _782
REMARK  295  A    between atoms: _782  and  _783
REMARK  296  A    between atoms: _782  and  _785
REMARK  297  A    between atoms: _785  and  _786
REMARK  298  A    between atoms: _786  and  _787
REMARK                            x       y       z     vdW  Elec       q    Type
REMARK                         _______ _______ _______ _____ _____    ______ ____
ROOT
ATOM      1  CA  SER A   5      -2.436 -17.923 -27.238  0.00  0.00    +0.178 C 
ENDROOT
BRANCH   1   2
ATOM      2  C   SER A   5      -2.701 -19.309 -27.765  0.00  0.00    +0.243 C 
ATOM      3  N   ALA A   6      -3.273 -20.135 -26.893  0.00  0.00    -0.297 N 
ATOM      4  H   ALA A   6      -3.524 -19.759 -25.956  0.00  0.00    +0.150 HD
ATOM      5  O   SER A   5      -2.386 -19.616 -28.921  0.00  0.00    -0.273 OA
BRANCH   3   6
ATOM      6  CA  ALA A   6      -3.568 -21.531 -27.171  0.00  0.00    +0.149 C 
ATOM      7  CB  ALA A   6      -2.769 -22.426 -26.239  0.00  0.00    +0.031 C 
BRANCH   6   8
ATOM      8  C   ALA A   6      -5.070 -21.747 -26.960  0.00  0.00    +0.241 C 
ATOM      9  O   ALA A   6      -5.624 -21.338 -25.933  0.00  0.00    -0.273 OA
ATOM     10  N   TRP A   7      -5.709 -22.398 -27.924  0.00  0.00    -0.297 N 
ATOM     11  H   TRP A   7      -5.155 -22.937 -28.620  0.00  0.00    +0.150 HD
BRANCH  10  12
ATOM     12  CA  TRP A   7      -7.178 -22.382 -28.039  0.00  0.00    +0.153 C 
BRANCH  12  13
ATOM     13  C   TRP A   7      -7.770 -23.772 -27.984  0.00  0.00    +0.241 C 
ATOM     14  N   ASP A   8      -8.783 -23.919 -27.129  0.00  0.00    -0.298 N 
ATOM     15  H   ASP A   8      -9.008 -23.130 -26.489  0.00  0.00    +0.150 HD
ATOM     16  O   TRP A   7      -7.299 -24.689 -28.675  0.00  0.00    -0.273 OA
BRANCH  14  17
ATOM     17  CA  ASP A   8      -9.586 -25.124 -27.047  0.00  0.00    +0.148 C 
BRANCH  17  18
ATOM     18  C   ASP A   8     -10.973 -24.698 -27.526  0.00  0.00    +0.227 C 
ATOM     19  O   ASP A   8     -11.563 -23.767 -26.976  0.00  0.00    -0.286 OA
ENDBRANCH  17  18
BRANCH  17  20
ATOM     20  CB  ASP A   8      -9.634 -25.609 -25.597  0.00  0.00    +0.142 C 
BRANCH  20  21
ATOM     21  CG  ASP A   8     -10.290 -26.976 -25.434  0.00  0.00    +0.367 C 
ATOM     22  OD2 ASP A   8     -10.050 -27.609 -24.374  0.00  0.00    -0.246 OA
ATOM     23  OD1 ASP A   8     -11.051 -27.425 -26.327  0.00  0.00    -0.246 OA
ENDBRANCH  20  21
ENDBRANCH  17  20
ENDBRANCH  14  17
ENDBRANCH  12  13
BRANCH  12  24
ATOM     24  CB  TRP A   7      -7.609 -21.711 -29.355  0.00  0.00    +0.057 C 
BRANCH  24  25
ATOM     25  CG  TRP A   7      -7.200 -20.276 -29.475  0.00  0.00    -0.002 A 
ATOM     26  CD1 TRP A   7      -5.919 -19.779 -29.465  0.00  0.00    +0.068 A 
ATOM     27  NE1 TRP A   7      -5.944 -18.413 -29.605  0.00  0.00    -0.352 N 
ATOM     28  HE1 TRP A   7      -5.110 -17.792 -29.628  0.00  0.00    +0.166 HD
ATOM     29  CE2 TRP A   7      -7.248 -18.000 -29.709  0.00  0.00    +0.056 A 
ATOM     30  CZ2 TRP A   7      -7.772 -16.707 -29.865  0.00  0.00    +0.017 A 
ATOM     31  CH2 TRP A   7      -9.138 -16.580 -29.951  0.00  0.00    +0.001 A 
ATOM     32  CZ3 TRP A   7      -9.992 -17.709 -29.872  0.00  0.00    +0.000 A 
ATOM     33  CE3 TRP A   7      -9.464 -18.999 -29.726  0.00  0.00    +0.001 A 
ATOM     34  CD2 TRP A   7      -8.067 -19.149 -29.631  0.00  0.00    +0.013 A 
ENDBRANCH  24  25
ENDBRANCH  12  24
ENDBRANCH  10  12
ENDBRANCH   6   8
ENDBRANCH   3   6
ENDBRANCH   1   2
BRANCH   1  37
ATOM     35  C   ALA A   4      -0.690 -16.241 -27.480  0.00  0.00    +0.241 C 
ATOM     36  O   ALA A   4      -0.899 -15.785 -26.348  0.00  0.00    -0.273 OA
ATOM     37  N   SER A   5      -1.396 -17.239 -28.002  0.00  0.00    -0.295 N 
ATOM     38  H   SER A   5      -1.203 -17.540 -28.979  0.00  0.00    +0.150 HD
BRANCH  35  39
ATOM     39  CA  ALA A   4       0.404 -15.656 -28.372  0.00  0.00    +0.149 C 
ATOM     40  CB  ALA A   4       1.728 -16.362 -28.122  0.00  0.00    +0.031 C 
BRANCH  39  42
ATOM     41  C   HIS A   3      -0.404 -13.334 -28.475  0.00  0.00    +0.241 C 
ATOM     42  N   ALA A   4       0.557 -14.209 -28.180  0.00  0.00    -0.297 N 
ATOM     43  H   ALA A   4       1.455 -13.851 -27.797  0.00  0.00    +0.150 HD
ATOM     44  O   HIS A   3      -1.558 -13.659 -28.788  0.00  0.00    -0.273 OA
BRANCH  41  45
ATOM     45  CA  HIS A   3      -0.005 -11.876 -28.435  0.00  0.00    +0.155 C 
BRANCH  45  47
ATOM     46  C   CYS A   2       0.153 -11.724 -30.853  0.00  0.00    +0.242 C 
ATOM     47  N   HIS A   3      -0.349 -11.257 -29.706  0.00  0.00    -0.297 N 
ATOM     48  H   HIS A   3      -0.994 -10.441 -29.722  0.00  0.00    +0.150 HD
ATOM     49  O   CYS A   2       0.914 -12.685 -30.912  0.00  0.00    -0.273 OA
BRANCH  46  50
ATOM     50  CA  CYS A   2      -0.269 -11.032 -32.139  0.00  0.00    +0.160 C 
BRANCH  50  52
ATOM     51  C   VAL A   1      -2.677 -10.954 -32.194  0.00  0.00    +0.238 C 
ATOM     52  N   CYS A   2      -1.529 -10.301 -32.045  0.00  0.00    -0.297 N 
ATOM     53  H   CYS A   2      -1.528  -9.277 -31.863  0.00  0.00    +0.150 HD
ATOM     54  O   VAL A   1      -2.726 -12.177 -32.381  0.00  0.00    -0.274 OA
BRANCH  51  55
ATOM     55  CA  VAL A   1      -3.955 -10.118 -32.148  0.00  0.00    +0.145 C 
BRANCH  55  56
ATOM     56  CB  VAL A   1      -4.946 -10.690 -31.110  0.00  0.00    +0.025 C 
ATOM     57  CG2 VAL A   1      -4.301 -10.749 -29.730  0.00  0.00    +0.002 C 
ATOM     58  CG1 VAL A   1      -6.225  -9.857 -31.066  0.00  0.00    +0.002 C 
ENDBRANCH  55  56
BRANCH  55  59
ATOM     59  N   VAL A   1      -4.499 -10.164 -33.490  0.00  0.00    -0.238 NA
ATOM     60  H   VAL A   1      -5.281 -10.819 -33.693  0.00  0.00    +0.142 HD
ENDBRANCH  55  59
ENDBRANCH  51  55
ENDBRANCH  50  52
BRANCH  50  61
ATOM     61  CB  CYS A   2       0.864 -10.168 -32.680  0.00  0.00    +0.098 C 
ATOM     62  SG  CYS A   2       1.077 -10.299 -34.476  0.00  0.00    -0.080 S 
ENDBRANCH  50  61
ENDBRANCH  46  50
ENDBRANCH  45  47
BRANCH  45  63
ATOM     63  CB  HIS A   3      -0.686 -11.175 -27.270  0.00  0.00    +0.076 C 
BRANCH  63  64
ATOM     64  CG  HIS A   3      -0.108 -11.538 -25.939  0.00  0.00    +0.082 A 
ATOM     65  CD2 HIS A   3      -0.270 -12.638 -25.169  0.00  0.00    +0.115 A 
ATOM     66  NE2 HIS A   3       0.516 -12.469 -24.053  0.00  0.00    -0.221 NA
ATOM     67  CE1 HIS A   3       1.142 -11.311 -24.141  0.00  0.00    +0.199 A 
ATOM     68  ND1 HIS A   3       0.781 -10.728 -25.269  0.00  0.00    -0.227 NA
ENDBRANCH  63  64
ENDBRANCH  45  63
ENDBRANCH  41  45
ENDBRANCH  39  42
ENDBRANCH  35  39
ENDBRANCH   1  37
BRANCH   1  69
ATOM     69  CB  SER A   5      -3.736 -17.111 -27.168  0.00  0.00    +0.166 C 
BRANCH  69  70
ATOM     70  OG  SER A   5      -4.060 -16.544 -28.425  0.00  0.00    -0.380 OA
ATOM     71  H   SER A   5      -4.901 -16.028 -28.346  0.00  0.00    +0.211 HD
ENDBRANCH  69  70
ENDBRANCH   1  69
TORSDOF 26
REMARK  Name = ../refined-set-2016/4ca6/4ca6_pocket.pdb
REMARK  298 active torsions:
REMARK  status: ('A' for Active; 'I' for Inactive)
REMARK    1  A    between atoms: _1  and  _3
REMARK    2  A    between atoms: _3  and  _4
REMARK    3  A    between atoms: _3  and  _6
REMARK    4  A    between atoms: _6  and  _7
REMARK    5  A    between atoms: _10  and  _12
REMARK    6  A    between atoms: _12  and  _13
REMARK    7  A    between atoms: _12  and  _15
REMARK    8  A    between atoms: _15  and  _16
REMARK    9  A    between atoms: _18  and  _20
REMARK   10  A    between atoms: _20  and  _21
REMARK   11  A    between atoms: _20  and  _23
REMARK   12  A    between atoms: _23  and  _24
REMARK   13  A    between atoms: _29  and  _30
REMARK   14  A    between atoms: _32  and  _34
REMARK   15  A    between atoms: _34  and  _35
REMARK   16  A    between atoms: _34  and  _37
REMARK   17  A    between atoms: _37  and  _38
REMARK   18  A    between atoms: _48  and  _50
REMARK   19  A    between atoms: _50  and  _51
REMARK   20  A    between atoms: _50  and  _53
REMARK   21  A    between atoms: _53  and  _54
REMARK   22  A    between atoms: _57  and  _59
REMARK   23  A    between atoms: _59  and  _60
REMARK   24  A    between atoms: _59  and  _62
REMARK   25  A    between atoms: _62  and  _63
REMARK   26  A    between atoms: _73  and  _75
REMARK   27  A    between atoms: _75  and  _76
REMARK   28  A    between atoms: _75  and  _78
REMARK   29  A    between atoms: _78  and  _79
REMARK   30  A    between atoms: _79  and  _80
REMARK   31  A    between atoms: _85  and  _87
REMARK   32  A    between atoms: _87  and  _88
REMARK   33  A    between atoms: _87  and  _90
REMARK   34  A    between atoms: _90  and  _91
REMARK   35  A    between atoms: _93  and  _95
REMARK   36  A    between atoms: _95  and  _96
REMARK   37  A    between atoms: _95  and  _98
REMARK   38  A    between atoms: _98  and  _99
REMARK   39  A    between atoms: _99  and  _100
REMARK   40  A    between atoms: _103  and  _105
REMARK   41  A    between atoms: _105  and  _106
REMARK   42  A    between atoms: _105  and  _108
REMARK   43  A    between atoms: _111  and  _113
REMARK   44  A    between atoms: _113  and  _114
REMARK   45  A    between atoms: _113  and  _116
REMARK   46  A    between atoms: _118  and  _120
REMARK   47  A    between atoms: _120  and  _121
REMARK   48  A    between atoms: _120  and  _123
REMARK   49  A    between atoms: _123  and  _124
REMARK   50  A    between atoms: _129  and  _131
REMARK   51  A    between atoms: _131  and  _132
REMARK   52  A    between atoms: _135  and  _137
REMARK   53  A    between atoms: _137  and  _138
REMARK   54  A    between atoms: _137  and  _140
REMARK   55  A    between atoms: _140  and  _141
REMARK   56  A    between atoms: _143  and  _145
REMARK   57  A    between atoms: _145  and  _146
REMARK   58  A    between atoms: _149  and  _151
REMARK   59  A    between atoms: _151  and  _152
REMARK   60  A    between atoms: _151  and  _154
REMARK   61  A    between atoms: _154  and  _155
REMARK   62  A    between atoms: _165  and  _167
REMARK   63  A    between atoms: _167  and  _168
REMARK   64  A    between atoms: _167  and  _170
REMARK   65  A    between atoms: _170  and  _171
REMARK   66  A    between atoms: _174  and  _176
REMARK   67  A    between atoms: _176  and  _177
REMARK   68  A    between atoms: _176  and  _179
REMARK   69  A    between atoms: _179  and  _180
REMARK   70  A    between atoms: _185  and  _186
REMARK   71  A    between atoms: _188  and  _190
REMARK   72  A    between atoms: _190  and  _191
REMARK   73  A    between atoms: _190  and  _193
REMARK   74  A    between atoms: _193  and  _194
REMARK   75  A    between atoms: _194  and  _195
REMARK   76  A    between atoms: _195  and  _196
REMARK   77  A    between atoms: _205  and  _207
REMARK   78  A    between atoms: _207  and  _208
REMARK   79  A    between atoms: _207  and  _210
REMARK   80  A    between atoms: _210  and  _211
REMARK   81  A    between atoms: _214  and  _216
REMARK   82  A    between atoms: _216  and  _217
REMARK   83  A    between atoms: _216  and  _219
REMARK   84  A    between atoms: _219  and  _220
REMARK   85  A    between atoms: _220  and  _221
REMARK   86  A    between atoms: _221  and  _222
REMARK   87  A    between atoms: _222  and  _223
REMARK   88  A    between atoms: _227  and  _229
REMARK   89  A    between atoms: _229  and  _230
REMARK   90  A    between atoms: _229  and  _232
REMARK   91  A    between atoms: _232  and  _233
REMARK   92  A    between atoms: _233  and  _234
REMARK   93  A    between atoms: _239  and  _241
REMARK   94  A    between atoms: _241  and  _242
REMARK   95  A    between atoms: _241  and  _244
REMARK   96  A    between atoms: _244  and  _245
REMARK   97  A    between atoms: _245  and  _246
REMARK   98  A    between atoms: _246  and  _247
REMARK   99  A    between atoms: _256  and  _258
REMARK  100  A    between atoms: _258  and  _259
REMARK  101  A    between atoms: _258  and  _261
REMARK  102  A    between atoms: _261  and  _262
REMARK  103  A    between atoms: _262  and  _263
REMARK  104  A    between atoms: _265  and  _267
REMARK  105  A    between atoms: _267  and  _268
REMARK  106  A    between atoms: _267  and  _270
REMARK  107  A    between atoms: _270  and  _271
REMARK  108  A    between atoms: _274  and  _276
REMARK  109  A    between atoms: _276  and  _277
REMARK  110  A    between atoms: _276  and  _279
REMARK  111  A    between atoms: _279  and  _280
REMARK  112  A    between atoms: _280  and  _281
REMARK  113  A    between atoms: _286  and  _288
REMARK  114  A    between atoms: _288  and  _289
REMARK  115  A    between atoms: _288  and  _291
REMARK  116  A    between atoms: _291  and  _292
REMARK  117  A    between atoms: _295  and  _297
REMARK  118  A    between atoms: _297  and  _298
REMARK  119  A    between atoms: _297  and  _300
REMARK  120  A    between atoms: _300  and  _301
REMARK  121  A    between atoms: _303  and  _305
REMARK  122  A    between atoms: _305  and  _306
REMARK  123  A    between atoms: _305  and  _308
REMARK  124  A    between atoms: _308  and  _309
REMARK  125  A    between atoms: _312  and  _314
REMARK  126  A    between atoms: _314  and  _315
REMARK  127  A    between atoms: _314  and  _317
REMARK  128  A    between atoms: _320  and  _322
REMARK  129  A    between atoms: _322  and  _323
REMARK  130  A    between atoms: _322  and  _325
REMARK  131  A    between atoms: _325  and  _326
REMARK  132  A    between atoms: _331  and  _333
REMARK  133  A    between atoms: _344  and  _347
REMARK  134  A    between atoms: _347  and  _348
REMARK  135  A    between atoms: _348  and  _349
REMARK  136  A    between atoms: _354  and  _357
REMARK  137  A    between atoms: _357  and  _358
REMARK  138  A    between atoms: _358  and  _359
REMARK  139  A    between atoms: _368  and  _369
REMARK  140  A    between atoms: _377  and  _379
REMARK  141  A    between atoms: _379  and  _380
REMARK  142  A    between atoms: _379  and  _382
REMARK  143  A    between atoms: _382  and  _383
REMARK  144  A    between atoms: _386  and  _388
REMARK  145  A    between atoms: _388  and  _389
REMARK  146  A    between atoms: _388  and  _391
REMARK  147  A    between atoms: _391  and  _392
REMARK  148  A    between atoms: _397  and  _398
REMARK  149  A    between atoms: _400  and  _402
REMARK  150  A    between atoms: _402  and  _403
REMARK  151  A    between atoms: _402  and  _405
REMARK  152  A    between atoms: _405  and  _406
REMARK  153  A    between atoms: _411  and  _412
REMARK  154  A    between atoms: _414  and  _416
REMARK  155  A    between atoms: _416  and  _417
REMARK  156  A    between atoms: _416  and  _419
REMARK  157  A    between atoms: _419  and  _420
REMARK  158  A    between atoms: _425  and  _426
REMARK  159  A    between atoms: _428  and  _430
REMARK  160  A    between atoms: _430  and  _431
REMARK  161  A    between atoms: _430  and  _433
REMARK  162  A    between atoms: _433  and  _434
REMARK  163  A    between atoms: _434  and  _435
REMARK  164  A    between atoms: _435  and  _436
REMARK  165  A    between atoms: _445  and  _447
REMARK  166  A    between atoms: _447  and  _448
REMARK  167  A    between atoms: _447  and  _450
REMARK  168  A    between atoms: _450  and  _451
REMARK  169  A    between atoms: _451  and  _452
REMARK  170  A    between atoms: _452  and  _453
REMARK  171  A    between atoms: _462  and  _464
REMARK  172  A    between atoms: _464  and  _465
REMARK  173  A    between atoms: _467  and  _469
REMARK  174  A    between atoms: _469  and  _470
REMARK  175  A    between atoms: _473  and  _475
REMARK  176  A    between atoms: _475  and  _476
REMARK  177  A    between atoms: _475  and  _478
REMARK  178  A    between atoms: _478  and  _479
REMARK  179  A    between atoms: _485  and  _486
REMARK  180  A    between atoms: _491  and  _493
REMARK  181  A    between atoms: _493  and  _494
REMARK  182  A    between atoms: _496  and  _498
REMARK  183  A    between atoms: _498  and  _499
REMARK  184  A    between atoms: _498  and  _501
REMARK  185  A    between atoms: _501  and  _502
REMARK  186  A    between atoms: _508  and  _510
REMARK  187  A    between atoms: _510  and  _511
REMARK  188  A    between atoms: _510  and  _513
REMARK  189  A    between atoms: _513  and  _514
REMARK  190  A    between atoms: _519  and  _521
REMARK  191  A    between atoms: _521  and  _522
REMARK  192  A    between atoms: _521  and  _524
REMARK  193  A    between atoms: _524  and  _525
REMARK  194  A    between atoms: _525  and  _526
REMARK  195  A    between atoms: _526  and  _527
REMARK  196  A    between atoms: _527  and  ZN_792
REMARK  197  A    between atoms: _529  and  _531
REMARK  198  A    between atoms: _531  and  _532
REMARK  199  A    between atoms: _535  and  _537
REMARK  200  A    between atoms: _537  and  _538
REMARK  201  A    between atoms: _540  and  _542
REMARK  202  A    between atoms: _542  and  _543
REMARK  203  A    between atoms: _542  and  _545
REMARK  204  A    between atoms: _545  and  _546
REMARK  205  A    between atoms: _549  and  _551
REMARK  206  A    between atoms: _551  and  _552
REMARK  207  A    between atoms: _551  and  _554
REMARK  208  A    between atoms: _557  and  _559
REMARK  209  A    between atoms: _559  and  _560
REMARK  210  A    between atoms: _563  and  _565
REMARK  211  A    between atoms: _565  and  _566
REMARK  212  A    between atoms: _565  and  _568
REMARK  213  A    between atoms: _568  and  _569
REMARK  214  A    between atoms: _572  and  _574
REMARK  215  A    between atoms: _574  and  _575
REMARK  216  A    between atoms: _574  and  _577
REMARK  217  A    between atoms: _577  and  _578
REMARK  218  A    between atoms: _578  and  _579
REMARK  219  A    between atoms: _582  and  _584
REMARK  220  A    between atoms: _584  and  _585
REMARK  221  A    between atoms: _584  and  _587
REMARK  222  A    between atoms: _587  and  _588
REMARK  223  A    between atoms: _588  and  _589
REMARK  224  A    between atoms: _589  and  _590
REMARK  225  A    between atoms: _590  and  _591
REMARK  226  A    between atoms: _595  and  _597
REMARK  227  A    between atoms: _597  and  _598
REMARK  228  A    between atoms: _597  and  _600
REMARK  229  A    between atoms: _600  and  _601
REMARK  230  A    between atoms: _607  and  _609
REMARK  231  A    between atoms: _609  and  _610
REMARK  232  A    between atoms: _609  and  _612
REMARK  233  A    between atoms: _612  and  _613
REMARK  234  A    between atoms: _619  and  _621
REMARK  235  A    between atoms: _621  and  _622
REMARK  236  A    between atoms: _624  and  _626
REMARK  237  A    between atoms: _626  and  _627
REMARK  238  A    between atoms: _626  and  _629
REMARK  239  A    between atoms: _632  and  _634
REMARK  240  A    between atoms: _634  and  _635
REMARK  241  A    between atoms: _634  and  _637
REMARK  242  A    between atoms: _637  and  _638
REMARK  243  A    between atoms: _638  and  _639
REMARK  244  A    between atoms: _639  and  _640
REMARK  245  A    between atoms: _640  and  _641
REMARK  246  A    between atoms: _645  and  _647
REMARK  247  A    between atoms: _647  and  _648
REMARK  248  A    between atoms: _647  and  _650
REMARK  249  A    between atoms: _650  and  _651
REMARK  250  A    between atoms: _657  and  _659
REMARK  251  A    between atoms: _659  and  _660
REMARK  252  A    between atoms: _659  and  _662
REMARK  253  A    between atoms: _662  and  _663
REMARK  254  A    between atoms: _668  and  _670
REMARK  255  A    between atoms: _670  and  _671
REMARK  256  A    between atoms: _670  and  _673
REMARK  257  A    between atoms: _673  and  _674
REMARK  258  A    between atoms: _679  and  _681
REMARK  259  A    between atoms: _681  and  _682
REMARK  260  A    between atoms: _681  and  _684
REMARK  261  A    between atoms: _687  and  _689
REMARK  262  A    between atoms: _689  and  _690
REMARK  263  A    between atoms: _689  and  _692
REMARK  264  A    between atoms: _692  and  _693
REMARK  265  A    between atoms: _697  and  _698
REMARK  266  A    between atoms: _703  and  _705
REMARK  267  A    between atoms: _705  and  _706
REMARK  268  A    between atoms: _705  and  _708
REMARK  269  A    between atoms: _708  and  _709
REMARK  270  A    between atoms: _714  and  _715
REMARK  271  A    between atoms: _717  and  _719
REMARK  272  A    between atoms: _719  and  _720
REMARK  273  A    between atoms: _719  and  _722
REMARK  274  A    between atoms: _722  and  _723
REMARK  275  A    between atoms: _723  and  _724
REMARK  276  A    between atoms: _724  and  _725
REMARK  277  A    between atoms: _734  and  _736
REMARK  278  A    between atoms: _736  and  _737
REMARK  279  A    between atoms: _736  and  _739
REMARK  280  A    between atoms: _739  and  _740
REMARK  281  A    between atoms: _745  and  _746
REMARK  282  A    between atoms: _748  and  _750
REMARK  283  A    between atoms: _750  and  _751
REMARK  284  A    between atoms: _750  and  _753
REMARK  285  A    between atoms: _753  and  _754
REMARK  286  A    between atoms: _760  and  _762
REMARK  287  A    between atoms: _762  and  _763
REMARK  288  A    between atoms: _762  and  _765
REMARK  289  A    between atoms: _765  and  _766
REMARK  290  A    between atoms: _768  and  _770
REMARK  291  A    between atoms: _770  and  _771
REMARK  292  A    between atoms: _770  and  _773
REMARK  293  A    between atoms: _773  and  _774
REMARK  294  A    between atoms: _780  and  _782
REMARK  295  A    between atoms: _782  and  _783
REMARK  296  A    between atoms: _782  and  _785
REMARK  297  A    between atoms: _785  and  _786
REMARK  298  A    between atoms: _786  and  _787
REMARK                            x       y       z     vdW  Elec       q    Type
REMARK                         _______ _______ _______ _____ _____    ______ ____
ROOT
ATOM      1  CG  TYR A   1     -14.627 -25.788 -24.778  0.00  0.00    -0.020 A 
ATOM      2  CD2 TYR A   1     -14.445 -26.499 -23.604  0.00  0.00    -0.001 A 
ATOM      3  CE2 TYR A   1     -13.679 -25.998 -22.571  0.00  0.00    +0.036 A 
ATOM      4  CZ  TYR A   1     -13.067 -24.778 -22.709  0.00  0.00    +0.134 A 
ATOM      5  CE1 TYR A   1     -13.214 -24.038 -23.874  0.00  0.00    +0.036 A 
ATOM      6  CD1 TYR A   1     -13.989 -24.554 -24.908  0.00  0.00    -0.001 A 
ENDROOT
BRANCH   4   7
ATOM      7  OH  TYR A   1     -12.318 -24.318 -21.666  0.00  0.00    -0.506 OA
ATOM      8  HH  TYR A   1     -11.385 -24.179 -21.967  0.00  0.00    +0.292 HD
ENDBRANCH   4   7
BRANCH   1   9
ATOM      9  CB  TYR A   1     -15.440 -26.373 -25.905  0.00  0.00    +0.051 C 
BRANCH   9  10
ATOM     10  CA  TYR A   1     -14.591 -27.346 -26.751  0.00  0.00    +0.137 C 
BRANCH  10  11
ATOM     11  N   TYR A   1     -13.604 -26.614 -27.539  0.00  0.00    -0.239 NA
ATOM     12  H   TYR A   1     -12.596 -26.777 -27.343  0.00  0.00    +0.142 HD
ENDBRANCH  10  11
BRANCH  10  13
ATOM     13  C   TYR A   1     -15.444 -28.322 -27.575  0.00  0.00    +0.224 C 
ATOM     14  O   TYR A   1     -16.565 -28.645 -27.190  0.00  0.00    -0.287 OA
ENDBRANCH  10  13
ENDBRANCH   9  10
ENDBRANCH   1   9
TORSDOF 5
REMARK  Name = ../refined-set-2016/4ca6/4ca6_pocket.pdb
REMARK  298 active torsions:
REMARK  status: ('A' for Active; 'I' for Inactive)
REMARK    1  A    between atoms: _1  and  _3
REMARK    2  A    between atoms: _3  and  _4
REMARK    3  A    between atoms: _3  and  _6
REMARK    4  A    between atoms: _6  and  _7
REMARK    5  A    between atoms: _10  and  _12
REMARK    6  A    between atoms: _12  and  _13
REMARK    7  A    between atoms: _12  and  _15
REMARK    8  A    between atoms: _15  and  _16
REMARK    9  A    between atoms: _18  and  _20
REMARK   10  A    between atoms: _20  and  _21
REMARK   11  A    between atoms: _20  and  _23
REMARK   12  A    between atoms: _23  and  _24
REMARK   13  A    between atoms: _29  and  _30
REMARK   14  A    between atoms: _32  and  _34
REMARK   15  A    between atoms: _34  and  _35
REMARK   16  A    between atoms: _34  and  _37
REMARK   17  A    between atoms: _37  and  _38
REMARK   18  A    between atoms: _48  and  _50
REMARK   19  A    between atoms: _50  and  _51
REMARK   20  A    between atoms: _50  and  _53
REMARK   21  A    between atoms: _53  and  _54
REMARK   22  A    between atoms: _57  and  _59
REMARK   23  A    between atoms: _59  and  _60
REMARK   24  A    between atoms: _59  and  _62
REMARK   25  A    between atoms: _62  and  _63
REMARK   26  A    between atoms: _73  and  _75
REMARK   27  A    between atoms: _75  and  _76
REMARK   28  A    between atoms: _75  and  _78
REMARK   29  A    between atoms: _78  and  _79
REMARK   30  A    between atoms: _79  and  _80
REMARK   31  A    between atoms: _85  and  _87
REMARK   32  A    between atoms: _87  and  _88
REMARK   33  A    between atoms: _87  and  _90
REMARK   34  A    between atoms: _90  and  _91
REMARK   35  A    between atoms: _93  and  _95
REMARK   36  A    between atoms: _95  and  _96
REMARK   37  A    between atoms: _95  and  _98
REMARK   38  A    between atoms: _98  and  _99
REMARK   39  A    between atoms: _99  and  _100
REMARK   40  A    between atoms: _103  and  _105
REMARK   41  A    between atoms: _105  and  _106
REMARK   42  A    between atoms: _105  and  _108
REMARK   43  A    between atoms: _111  and  _113
REMARK   44  A    between atoms: _113  and  _114
REMARK   45  A    between atoms: _113  and  _116
REMARK   46  A    between atoms: _118  and  _120
REMARK   47  A    between atoms: _120  and  _121
REMARK   48  A    between atoms: _120  and  _123
REMARK   49  A    between atoms: _123  and  _124
REMARK   50  A    between atoms: _129  and  _131
REMARK   51  A    between atoms: _131  and  _132
REMARK   52  A    between atoms: _135  and  _137
REMARK   53  A    between atoms: _137  and  _138
REMARK   54  A    between atoms: _137  and  _140
REMARK   55  A    between atoms: _140  and  _141
REMARK   56  A    between atoms: _143  and  _145
REMARK   57  A    between atoms: _145  and  _146
REMARK   58  A    between atoms: _149  and  _151
REMARK   59  A    between atoms: _151  and  _152
REMARK   60  A    between atoms: _151  and  _154
REMARK   61  A    between atoms: _154  and  _155
REMARK   62  A    between atoms: _165  and  _167
REMARK   63  A    between atoms: _167  and  _168
REMARK   64  A    between atoms: _167  and  _170
REMARK   65  A    between atoms: _170  and  _171
REMARK   66  A    between atoms: _174  and  _176
REMARK   67  A    between atoms: _176  and  _177
REMARK   68  A    between atoms: _176  and  _179
REMARK   69  A    between atoms: _179  and  _180
REMARK   70  A    between atoms: _185  and  _186
REMARK   71  A    between atoms: _188  and  _190
REMARK   72  A    between atoms: _190  and  _191
REMARK   73  A    between atoms: _190  and  _193
REMARK   74  A    between atoms: _193  and  _194
REMARK   75  A    between atoms: _194  and  _195
REMARK   76  A    between atoms: _195  and  _196
REMARK   77  A    between atoms: _205  and  _207
REMARK   78  A    between atoms: _207  and  _208
REMARK   79  A    between atoms: _207  and  _210
REMARK   80  A    between atoms: _210  and  _211
REMARK   81  A    between atoms: _214  and  _216
REMARK   82  A    between atoms: _216  and  _217
REMARK   83  A    between atoms: _216  and  _219
REMARK   84  A    between atoms: _219  and  _220
REMARK   85  A    between atoms: _220  and  _221
REMARK   86  A    between atoms: _221  and  _222
REMARK   87  A    between atoms: _222  and  _223
REMARK   88  A    between atoms: _227  and  _229
REMARK   89  A    between atoms: _229  and  _230
REMARK   90  A    between atoms: _229  and  _232
REMARK   91  A    between atoms: _232  and  _233
REMARK   92  A    between atoms: _233  and  _234
REMARK   93  A    between atoms: _239  and  _241
REMARK   94  A    between atoms: _241  and  _242
REMARK   95  A    between atoms: _241  and  _244
REMARK   96  A    between atoms: _244  and  _245
REMARK   97  A    between atoms: _245  and  _246
REMARK   98  A    between atoms: _246  and  _247
REMARK   99  A    between atoms: _256  and  _258
REMARK  100  A    between atoms: _258  and  _259
REMARK  101  A    between atoms: _258  and  _261
REMARK  102  A    between atoms: _261  and  _262
REMARK  103  A    between atoms: _262  and  _263
REMARK  104  A    between atoms: _265  and  _267
REMARK  105  A    between atoms: _267  and  _268
REMARK  106  A    between atoms: _267  and  _270
REMARK  107  A    between atoms: _270  and  _271
REMARK  108  A    between atoms: _274  and  _276
REMARK  109  A    between atoms: _276  and  _277
REMARK  110  A    between atoms: _276  and  _279
REMARK  111  A    between atoms: _279  and  _280
REMARK  112  A    between atoms: _280  and  _281
REMARK  113  A    between atoms: _286  and  _288
REMARK  114  A    between atoms: _288  and  _289
REMARK  115  A    between atoms: _288  and  _291
REMARK  116  A    between atoms: _291  and  _292
REMARK  117  A    between atoms: _295  and  _297
REMARK  118  A    between atoms: _297  and  _298
REMARK  119  A    between atoms: _297  and  _300
REMARK  120  A    between atoms: _300  and  _301
REMARK  121  A    between atoms: _303  and  _305
REMARK  122  A    between atoms: _305  and  _306
REMARK  123  A    between atoms: _305  and  _308
REMARK  124  A    between atoms: _308  and  _309
REMARK  125  A    between atoms: _312  and  _314
REMARK  126  A    between atoms: _314  and  _315
REMARK  127  A    between atoms: _314  and  _317
REMARK  128  A    between atoms: _320  and  _322
REMARK  129  A    between atoms: _322  and  _323
REMARK  130  A    between atoms: _322  and  _325
REMARK  131  A    between atoms: _325  and  _326
REMARK  132  A    between atoms: _331  and  _333
REMARK  133  A    between atoms: _344  and  _347
REMARK  134  A    between atoms: _347  and  _348
REMARK  135  A    between atoms: _348  and  _349
REMARK  136  A    between atoms: _354  and  _357
REMARK  137  A    between atoms: _357  and  _358
REMARK  138  A    between atoms: _358  and  _359
REMARK  139  A    between atoms: _368  and  _369
REMARK  140  A    between atoms: _377  and  _379
REMARK  141  A    between atoms: _379  and  _380
REMARK  142  A    between atoms: _379  and  _382
REMARK  143  A    between atoms: _382  and  _383
REMARK  144  A    between atoms: _386  and  _388
REMARK  145  A    between atoms: _388  and  _389
REMARK  146  A    between atoms: _388  and  _391
REMARK  147  A    between atoms: _391  and  _392
REMARK  148  A    between atoms: _397  and  _398
REMARK  149  A    between atoms: _400  and  _402
REMARK  150  A    between atoms: _402  and  _403
REMARK  151  A    between atoms: _402  and  _405
REMARK  152  A    between atoms: _405  and  _406
REMARK  153  A    between atoms: _411  and  _412
REMARK  154  A    between atoms: _414  and  _416
REMARK  155  A    between atoms: _416  and  _417
REMARK  156  A    between atoms: _416  and  _419
REMARK  157  A    between atoms: _419  and  _420
REMARK  158  A    between atoms: _425  and  _426
REMARK  159  A    between atoms: _428  and  _430
REMARK  160  A    between atoms: _430  and  _431
REMARK  161  A    between atoms: _430  and  _433
REMARK  162  A    between atoms: _433  and  _434
REMARK  163  A    between atoms: _434  and  _435
REMARK  164  A    between atoms: _435  and  _436
REMARK  165  A    between atoms: _445  and  _447
REMARK  166  A    between atoms: _447  and  _448
REMARK  167  A    between atoms: _447  and  _450
REMARK  168  A    between atoms: _450  and  _451
REMARK  169  A    between atoms: _451  and  _452
REMARK  170  A    between atoms: _452  and  _453
REMARK  171  A    between atoms: _462  and  _464
REMARK  172  A    between atoms: _464  and  _465
REMARK  173  A    between atoms: _467  and  _469
REMARK  174  A    between atoms: _469  and  _470
REMARK  175  A    between atoms: _473  and  _475
REMARK  176  A    between atoms: _475  and  _476
REMARK  177  A    between atoms: _475  and  _478
REMARK  178  A    between atoms: _478  and  _479
REMARK  179  A    between atoms: _485  and  _486
REMARK  180  A    between atoms: _491  and  _493
REMARK  181  A    between atoms: _493  and  _494
REMARK  182  A    between atoms: _496  and  _498
REMARK  183  A    between atoms: _498  and  _499
REMARK  184  A    between atoms: _498  and  _501
REMARK  185  A    between atoms: _501  and  _502
REMARK  186  A    between atoms: _508  and  _510
REMARK  187  A    between atoms: _510  and  _511
REMARK  188  A    between atoms: _510  and  _513
REMARK  189  A    between atoms: _513  and  _514
REMARK  190  A    between atoms: _519  and  _521
REMARK  191  A    between atoms: _521  and  _522
REMARK  192  A    between atoms: _521  and  _524
REMARK  193  A    between atoms: _524  and  _525
REMARK  194  A    between atoms: _525  and  _526
REMARK  195  A    between atoms: _526  and  _527
REMARK  196  A    between atoms: _527  and  ZN_792
REMARK  197  A    between atoms: _529  and  _531
REMARK  198  A    between atoms: _531  and  _532
REMARK  199  A    between atoms: _535  and  _537
REMARK  200  A    between atoms: _537  and  _538
REMARK  201  A    between atoms: _540  and  _542
REMARK  202  A    between atoms: _542  and  _543
REMARK  203  A    between atoms: _542  and  _545
REMARK  204  A    between atoms: _545  and  _546
REMARK  205  A    between atoms: _549  and  _551
REMARK  206  A    between atoms: _551  and  _552
REMARK  207  A    between atoms: _551  and  _554
REMARK  208  A    between atoms: _557  and  _559
REMARK  209  A    between atoms: _559  and  _560
REMARK  210  A    between atoms: _563  and  _565
REMARK  211  A    between atoms: _565  and  _566
REMARK  212  A    between atoms: _565  and  _568
REMARK  213  A    between atoms: _568  and  _569
REMARK  214  A    between atoms: _572  and  _574
REMARK  215  A    between atoms: _574  and  _575
REMARK  216  A    between atoms: _574  and  _577
REMARK  217  A    between atoms: _577  and  _578
REMARK  218  A    between atoms: _578  and  _579
REMARK  219  A    between atoms: _582  and  _584
REMARK  220  A    between atoms: _584  and  _585
REMARK  221  A    between atoms: _584  and  _587
REMARK  222  A    between atoms: _587  and  _588
REMARK  223  A    between atoms: _588  and  _589
REMARK  224  A    between atoms: _589  and  _590
REMARK  225  A    between atoms: _590  and  _591
REMARK  226  A    between atoms: _595  and  _597
REMARK  227  A    between atoms: _597  and  _598
REMARK  228  A    between atoms: _597  and  _600
REMARK  229  A    between atoms: _600  and  _601
REMARK  230  A    between atoms: _607  and  _609
REMARK  231  A    between atoms: _609  and  _610
REMARK  232  A    between atoms: _609  and  _612
REMARK  233  A    between atoms: _612  and  _613
REMARK  234  A    between atoms: _619  and  _621
REMARK  235  A    between atoms: _621  and  _622
REMARK  236  A    between atoms: _624  and  _626
REMARK  237  A    between atoms: _626  and  _627
REMARK  238  A    between atoms: _626  and  _629
REMARK  239  A    between atoms: _632  and  _634
REMARK  240  A    between atoms: _634  and  _635
REMARK  241  A    between atoms: _634  and  _637
REMARK  242  A    between atoms: _637  and  _638
REMARK  243  A    between atoms: _638  and  _639
REMARK  244  A    between atoms: _639  and  _640
REMARK  245  A    between atoms: _640  and  _641
REMARK  246  A    between atoms: _645  and  _647
REMARK  247  A    between atoms: _647  and  _648
REMARK  248  A    between atoms: _647  and  _650
REMARK  249  A    between atoms: _650  and  _651
REMARK  250  A    between atoms: _657  and  _659
REMARK  251  A    between atoms: _659  and  _660
REMARK  252  A    between atoms: _659  and  _662
REMARK  253  A    between atoms: _662  and  _663
REMARK  254  A    between atoms: _668  and  _670
REMARK  255  A    between atoms: _670  and  _671
REMARK  256  A    between atoms: _670  and  _673
REMARK  257  A    between atoms: _673  and  _674
REMARK  258  A    between atoms: _679  and  _681
REMARK  259  A    between atoms: _681  and  _682
REMARK  260  A    between atoms: _681  and  _684
REMARK  261  A    between atoms: _687  and  _689
REMARK  262  A    between atoms: _689  and  _690
REMARK  263  A    between atoms: _689  and  _692
REMARK  264  A    between atoms: _692  and  _693
REMARK  265  A    between atoms: _697  and  _698
REMARK  266  A    between atoms: _703  and  _705
REMARK  267  A    between atoms: _705  and  _706
REMARK  268  A    between atoms: _705  and  _708
REMARK  269  A    between atoms: _708  and  _709
REMARK  270  A    between atoms: _714  and  _715
REMARK  271  A    between atoms: _717  and  _719
REMARK  272  A    between atoms: _719  and  _720
REMARK  273  A    between atoms: _719  and  _722
REMARK  274  A    between atoms: _722  and  _723
REMARK  275  A    between atoms: _723  and  _724
REMARK  276  A    between atoms: _724  and  _725
REMARK  277  A    between atoms: _734  and  _736
REMARK  278  A    between atoms: _736  and  _737
REMARK  279  A    between atoms: _736  and  _739
REMARK  280  A    between atoms: _739  and  _740
REMARK  281  A    between atoms: _745  and  _746
REMARK  282  A    between atoms: _748  and  _750
REMARK  283  A    between atoms: _750  and  _751
REMARK  284  A    between atoms: _750  and  _753
REMARK  285  A    between atoms: _753  and  _754
REMARK  286  A    between atoms: _760  and  _762
REMARK  287  A    between atoms: _762  and  _763
REMARK  288  A    between atoms: _762  and  _765
REMARK  289  A    between atoms: _765  and  _766
REMARK  290  A    between atoms: _768  and  _770
REMARK  291  A    between atoms: _770  and  _771
REMARK  292  A    between atoms: _770  and  _773
REMARK  293  A    between atoms: _773  and  _774
REMARK  294  A    between atoms: _780  and  _782
REMARK  295  A    between atoms: _782  and  _783
REMARK  296  A    between atoms: _782  and  _785
REMARK  297  A    between atoms: _785  and  _786
REMARK  298  A    between atoms: _786  and  _787
REMARK                            x       y       z     vdW  Elec       q    Type
REMARK                         _______ _______ _______ _____ _____    ______ ____
ROOT
ATOM      1  C   ILE A   2      -2.273 -20.709 -32.429  0.00  0.00    +0.241 C 
ATOM      2  N   LYS A   3      -2.320 -19.497 -31.896  0.00  0.00    -0.297 N 
ATOM      3  H   LYS A   3      -2.452 -19.415 -30.868  0.00  0.00    +0.150 HD
ATOM      4  O   ILE A   2      -2.341 -20.909 -33.641  0.00  0.00    -0.273 OA
ENDROOT
BRANCH   2   5
ATOM      5  CA  LYS A   3      -2.197 -18.286 -32.670  0.00  0.00    +0.149 C 
BRANCH   5   6
ATOM      6  C   LYS A   3      -0.971 -17.536 -32.130  0.00  0.00    +0.241 C 
ATOM      7  O   LYS A   3      -1.017 -16.967 -31.031  0.00  0.00    -0.273 OA
ATOM      8  N   GLN A   4       0.120 -17.544 -32.891  0.00  0.00    -0.298 N 
ATOM      9  H   GLN A   4       0.088 -18.021 -33.815  0.00  0.00    +0.150 HD
BRANCH   8  10
ATOM     10  CA  GLN A   4       1.363 -16.901 -32.465  0.00  0.00    +0.137 C 
BRANCH  10  11
ATOM     11  C   GLN A   4       2.054 -16.247 -33.665  0.00  0.00    +0.227 C 
ATOM     12  O   GLN A   4       2.240 -16.891 -34.704  0.00  0.00    -0.286 OA
ENDBRANCH  10  11
BRANCH  10  13
ATOM     13  CB  GLN A   4       2.299 -17.923 -31.798  0.00  0.00    +0.037 C 
BRANCH  13  14
ATOM     14  CG  GLN A   4       3.664 -17.390 -31.349  0.00  0.00    +0.087 C 
BRANCH  14  15
ATOM     15  CD  GLN A   4       4.502 -18.431 -30.613  0.00  0.00    +0.219 C 
ATOM     16  OE1 GLN A   4       3.986 -19.464 -30.161  0.00  0.00    -0.275 OA
ATOM     17  NE2 GLN A   4       5.793 -18.156 -30.467  0.00  0.00    -0.329 N 
ATOM     18 HE21 GLN A   4       6.412 -18.819 -29.958  0.00  0.00    +0.145 HD
ATOM     19 HE22 GLN A   4       6.185 -17.278 -30.862  0.00  0.00    +0.145 HD
ENDBRANCH  14  15
ENDBRANCH  13  14
ENDBRANCH  10  13
ENDBRANCH   8  10
ENDBRANCH   5   6
BRANCH   5  20
ATOM     20  CB  LYS A   3      -3.459 -17.439 -32.481  0.00  0.00    +0.029 C 
BRANCH  20  21
ATOM     21  CG  LYS A   3      -3.486 -16.129 -33.248  0.00  0.00    +0.000 C 
BRANCH  21  22
ATOM     22  CD  LYS A   3      -4.618 -15.228 -32.767  0.00  0.00    -0.024 C 
BRANCH  22  23
ATOM     23  CE  LYS A   3      -4.522 -14.868 -31.290  0.00  0.00    -0.086 C 
BRANCH  23  24
ATOM     24  NZ  LYS A   3      -3.177 -14.339 -30.918  0.00  0.00    +0.380 N 
ATOM     25  HZ1 LYS A   3      -3.164 -14.110 -29.904  0.00  0.00    -0.089 HD
ATOM     26  HZ2 LYS A   3      -2.454 -15.059 -31.121  0.00  0.00    -0.089 HD
ATOM     27  HZ3 LYS A   3      -2.978 -13.481 -31.471  0.00  0.00    -0.089 HD
ENDBRANCH  23  24
ENDBRANCH  22  23
ENDBRANCH  21  22
ENDBRANCH  20  21
ENDBRANCH   5  20
ENDBRANCH   2   5
BRANCH   1  28
ATOM     28  CA  ILE A   2      -2.172 -21.876 -31.433  0.00  0.00    +0.148 C 
BRANCH  28  31
ATOM     29  C   ARG A   1      -4.134 -23.315 -31.365  0.00  0.00    +0.238 C 
ATOM     30  O   ARG A   1      -4.502 -22.875 -30.282  0.00  0.00    -0.274 OA
ATOM     31  N   ILE A   2      -2.978 -22.992 -31.929  0.00  0.00    -0.297 N 
ATOM     32  H   ILE A   2      -2.637 -23.544 -32.742  0.00  0.00    +0.150 HD
BRANCH  29  33
ATOM     33  CA  ARG A   1      -5.031 -24.220 -32.178  0.00  0.00    +0.145 C 
BRANCH  33  34
ATOM     34  N   ARG A   1      -5.898 -25.047 -31.345  0.00  0.00    -0.238 NA
ATOM     35  H   ARG A   1      -6.280 -24.659 -30.459  0.00  0.00    +0.142 HD
ENDBRANCH  33  34
BRANCH  33  36
ATOM     36  CB  ARG A   1      -5.864 -23.317 -33.086  0.00  0.00    +0.030 C 
BRANCH  36  37
ATOM     37  CG  ARG A   1      -6.840 -24.040 -33.980  0.00  0.00    +0.045 C 
BRANCH  37  38
ATOM     38  CD  ARG A   1      -7.671 -23.083 -34.813  0.00  0.00    +0.174 C 
BRANCH  38  39
ATOM     39  NE  ARG A   1      -8.602 -23.855 -35.622  0.00  0.00    -0.265 N 
ATOM     40  HE  ARG A   1      -8.588 -24.889 -35.507  0.00  0.00    +0.259 HD
ATOM     41  CZ  ARG A   1      -9.469 -23.352 -36.495  0.00  0.00    +0.342 C 
ATOM     42  NH2 ARG A   1      -9.564 -22.044 -36.708  0.00  0.00    -0.292 N 
ATOM     43 HH21 ARG A   1      -8.951 -21.386 -36.186  0.00  0.00    +0.255 HD
ATOM     44 HH22 ARG A   1     -10.251 -21.678 -37.397  0.00  0.00    +0.255 HD
ATOM     45  NH1 ARG A   1     -10.248 -24.178 -37.166  0.00  0.00    -0.292 N 
ATOM     46 HH11 ARG A   1     -10.177 -25.203 -37.008  0.00  0.00    +0.255 HD
ATOM     47 HH12 ARG A   1     -10.933 -23.804 -37.854  0.00  0.00    +0.255 HD
ENDBRANCH  38  39
ENDBRANCH  37  38
ENDBRANCH  36  37
ENDBRANCH  33  36
ENDBRANCH  29  33
ENDBRANCH  28  31
BRANCH  28  48
ATOM     48  CB  ILE A   2      -0.703 -22.302 -31.167  0.00  0.00    +0.027 C 
ATOM     49  CG2 ILE A   2       0.230 -21.093 -31.059  0.00  0.00    +0.002 C 
BRANCH  48  50
ATOM     50  CG1 ILE A   2      -0.624 -23.137 -29.877  0.00  0.00    +0.002 C 
ATOM     51  CD1 ILE A   2       0.652 -23.962 -29.715  0.00  0.00    +0.000 C 
ENDBRANCH  48  50
ENDBRANCH  28  48
ENDBRANCH   1  28
TORSDOF 22
REMARK  Name = ../refined-set-2016/4ca6/4ca6_pocket.pdb
REMARK  298 active torsions:
REMARK  status: ('A' for Active; 'I' for Inactive)
REMARK    1  A    between atoms: _1  and  _3
REMARK    2  A    between atoms: _3  and  _4
REMARK    3  A    between atoms: _3  and  _6
REMARK    4  A    between atoms: _6  and  _7
REMARK    5  A    between atoms: _10  and  _12
REMARK    6  A    between atoms: _12  and  _13
REMARK    7  A    between atoms: _12  and  _15
REMARK    8  A    between atoms: _15  and  _16
REMARK    9  A    between atoms: _18  and  _20
REMARK   10  A    between atoms: _20  and  _21
REMARK   11  A    between atoms: _20  and  _23
REMARK   12  A    between atoms: _23  and  _24
REMARK   13  A    between atoms: _29  and  _30
REMARK   14  A    between atoms: _32  and  _34
REMARK   15  A    between atoms: _34  and  _35
REMARK   16  A    between atoms: _34  and  _37
REMARK   17  A    between atoms: _37  and  _38
REMARK   18  A    between atoms: _48  and  _50
REMARK   19  A    between atoms: _50  and  _51
REMARK   20  A    between atoms: _50  and  _53
REMARK   21  A    between atoms: _53  and  _54
REMARK   22  A    between atoms: _57  and  _59
REMARK   23  A    between atoms: _59  and  _60
REMARK   24  A    between atoms: _59  and  _62
REMARK   25  A    between atoms: _62  and  _63
REMARK   26  A    between atoms: _73  and  _75
REMARK   27  A    between atoms: _75  and  _76
REMARK   28  A    between atoms: _75  and  _78
REMARK   29  A    between atoms: _78  and  _79
REMARK   30  A    between atoms: _79  and  _80
REMARK   31  A    between atoms: _85  and  _87
REMARK   32  A    between atoms: _87  and  _88
REMARK   33  A    between atoms: _87  and  _90
REMARK   34  A    between atoms: _90  and  _91
REMARK   35  A    between atoms: _93  and  _95
REMARK   36  A    between atoms: _95  and  _96
REMARK   37  A    between atoms: _95  and  _98
REMARK   38  A    between atoms: _98  and  _99
REMARK   39  A    between atoms: _99  and  _100
REMARK   40  A    between atoms: _103  and  _105
REMARK   41  A    between atoms: _105  and  _106
REMARK   42  A    between atoms: _105  and  _108
REMARK   43  A    between atoms: _111  and  _113
REMARK   44  A    between atoms: _113  and  _114
REMARK   45  A    between atoms: _113  and  _116
REMARK   46  A    between atoms: _118  and  _120
REMARK   47  A    between atoms: _120  and  _121
REMARK   48  A    between atoms: _120  and  _123
REMARK   49  A    between atoms: _123  and  _124
REMARK   50  A    between atoms: _129  and  _131
REMARK   51  A    between atoms: _131  and  _132
REMARK   52  A    between atoms: _135  and  _137
REMARK   53  A    between atoms: _137  and  _138
REMARK   54  A    between atoms: _137  and  _140
REMARK   55  A    between atoms: _140  and  _141
REMARK   56  A    between atoms: _143  and  _145
REMARK   57  A    between atoms: _145  and  _146
REMARK   58  A    between atoms: _149  and  _151
REMARK   59  A    between atoms: _151  and  _152
REMARK   60  A    between atoms: _151  and  _154
REMARK   61  A    between atoms: _154  and  _155
REMARK   62  A    between atoms: _165  and  _167
REMARK   63  A    between atoms: _167  and  _168
REMARK   64  A    between atoms: _167  and  _170
REMARK   65  A    between atoms: _170  and  _171
REMARK   66  A    between atoms: _174  and  _176
REMARK   67  A    between atoms: _176  and  _177
REMARK   68  A    between atoms: _176  and  _179
REMARK   69  A    between atoms: _179  and  _180
REMARK   70  A    between atoms: _185  and  _186
REMARK   71  A    between atoms: _188  and  _190
REMARK   72  A    between atoms: _190  and  _191
REMARK   73  A    between atoms: _190  and  _193
REMARK   74  A    between atoms: _193  and  _194
REMARK   75  A    between atoms: _194  and  _195
REMARK   76  A    between atoms: _195  and  _196
REMARK   77  A    between atoms: _205  and  _207
REMARK   78  A    between atoms: _207  and  _208
REMARK   79  A    between atoms: _207  and  _210
REMARK   80  A    between atoms: _210  and  _211
REMARK   81  A    between atoms: _214  and  _216
REMARK   82  A    between atoms: _216  and  _217
REMARK   83  A    between atoms: _216  and  _219
REMARK   84  A    between atoms: _219  and  _220
REMARK   85  A    between atoms: _220  and  _221
REMARK   86  A    between atoms: _221  and  _222
REMARK   87  A    between atoms: _222  and  _223
REMARK   88  A    between atoms: _227  and  _229
REMARK   89  A    between atoms: _229  and  _230
REMARK   90  A    between atoms: _229  and  _232
REMARK   91  A    between atoms: _232  and  _233
REMARK   92  A    between atoms: _233  and  _234
REMARK   93  A    between atoms: _239  and  _241
REMARK   94  A    between atoms: _241  and  _242
REMARK   95  A    between atoms: _241  and  _244
REMARK   96  A    between atoms: _244  and  _245
REMARK   97  A    between atoms: _245  and  _246
REMARK   98  A    between atoms: _246  and  _247
REMARK   99  A    between atoms: _256  and  _258
REMARK  100  A    between atoms: _258  and  _259
REMARK  101  A    between atoms: _258  and  _261
REMARK  102  A    between atoms: _261  and  _262
REMARK  103  A    between atoms: _262  and  _263
REMARK  104  A    between atoms: _265  and  _267
REMARK  105  A    between atoms: _267  and  _268
REMARK  106  A    between atoms: _267  and  _270
REMARK  107  A    between atoms: _270  and  _271
REMARK  108  A    between atoms: _274  and  _276
REMARK  109  A    between atoms: _276  and  _277
REMARK  110  A    between atoms: _276  and  _279
REMARK  111  A    between atoms: _279  and  _280
REMARK  112  A    between atoms: _280  and  _281
REMARK  113  A    between atoms: _286  and  _288
REMARK  114  A    between atoms: _288  and  _289
REMARK  115  A    between atoms: _288  and  _291
REMARK  116  A    between atoms: _291  and  _292
REMARK  117  A    between atoms: _295  and  _297
REMARK  118  A    between atoms: _297  and  _298
REMARK  119  A    between atoms: _297  and  _300
REMARK  120  A    between atoms: _300  and  _301
REMARK  121  A    between atoms: _303  and  _305
REMARK  122  A    between atoms: _305  and  _306
REMARK  123  A    between atoms: _305  and  _308
REMARK  124  A    between atoms: _308  and  _309
REMARK  125  A    between atoms: _312  and  _314
REMARK  126  A    between atoms: _314  and  _315
REMARK  127  A    between atoms: _314  and  _317
REMARK  128  A    between atoms: _320  and  _322
REMARK  129  A    between atoms: _322  and  _323
REMARK  130  A    between atoms: _322  and  _325
REMARK  131  A    between atoms: _325  and  _326
REMARK  132  A    between atoms: _331  and  _333
REMARK  133  A    between atoms: _344  and  _347
REMARK  134  A    between atoms: _347  and  _348
REMARK  135  A    between atoms: _348  and  _349
REMARK  136  A    between atoms: _354  and  _357
REMARK  137  A    between atoms: _357  and  _358
REMARK  138  A    between atoms: _358  and  _359
REMARK  139  A    between atoms: _368  and  _369
REMARK  140  A    between atoms: _377  and  _379
REMARK  141  A    between atoms: _379  and  _380
REMARK  142  A    between atoms: _379  and  _382
REMARK  143  A    between atoms: _382  and  _383
REMARK  144  A    between atoms: _386  and  _388
REMARK  145  A    between atoms: _388  and  _389
REMARK  146  A    between atoms: _388  and  _391
REMARK  147  A    between atoms: _391  and  _392
REMARK  148  A    between atoms: _397  and  _398
REMARK  149  A    between atoms: _400  and  _402
REMARK  150  A    between atoms: _402  and  _403
REMARK  151  A    between atoms: _402  and  _405
REMARK  152  A    between atoms: _405  and  _406
REMARK  153  A    between atoms: _411  and  _412
REMARK  154  A    between atoms: _414  and  _416
REMARK  155  A    between atoms: _416  and  _417
REMARK  156  A    between atoms: _416  and  _419
REMARK  157  A    between atoms: _419  and  _420
REMARK  158  A    between atoms: _425  and  _426
REMARK  159  A    between atoms: _428  and  _430
REMARK  160  A    between atoms: _430  and  _431
REMARK  161  A    between atoms: _430  and  _433
REMARK  162  A    between atoms: _433  and  _434
REMARK  163  A    between atoms: _434  and  _435
REMARK  164  A    between atoms: _435  and  _436
REMARK  165  A    between atoms: _445  and  _447
REMARK  166  A    between atoms: _447  and  _448
REMARK  167  A    between atoms: _447  and  _450
REMARK  168  A    between atoms: _450  and  _451
REMARK  169  A    between atoms: _451  and  _452
REMARK  170  A    between atoms: _452  and  _453
REMARK  171  A    between atoms: _462  and  _464
REMARK  172  A    between atoms: _464  and  _465
REMARK  173  A    between atoms: _467  and  _469
REMARK  174  A    between atoms: _469  and  _470
REMARK  175  A    between atoms: _473  and  _475
REMARK  176  A    between atoms: _475  and  _476
REMARK  177  A    between atoms: _475  and  _478
REMARK  178  A    between atoms: _478  and  _479
REMARK  179  A    between atoms: _485  and  _486
REMARK  180  A    between atoms: _491  and  _493
REMARK  181  A    between atoms: _493  and  _494
REMARK  182  A    between atoms: _496  and  _498
REMARK  183  A    between atoms: _498  and  _499
REMARK  184  A    between atoms: _498  and  _501
REMARK  185  A    between atoms: _501  and  _502
REMARK  186  A    between atoms: _508  and  _510
REMARK  187  A    between atoms: _510  and  _511
REMARK  188  A    between atoms: _510  and  _513
REMARK  189  A    between atoms: _513  and  _514
REMARK  190  A    between atoms: _519  and  _521
REMARK  191  A    between atoms: _521  and  _522
REMARK  192  A    between atoms: _521  and  _524
REMARK  193  A    between atoms: _524  and  _525
REMARK  194  A    between atoms: _525  and  _526
REMARK  195  A    between atoms: _526  and  _527
REMARK  196  A    between atoms: _527  and  ZN_792
REMARK  197  A    between atoms: _529  and  _531
REMARK  198  A    between atoms: _531  and  _532
REMARK  199  A    between atoms: _535  and  _537
REMARK  200  A    between atoms: _537  and  _538
REMARK  201  A    between atoms: _540  and  _542
REMARK  202  A    between atoms: _542  and  _543
REMARK  203  A    between atoms: _542  and  _545
REMARK  204  A    between atoms: _545  and  _546
REMARK  205  A    between atoms: _549  and  _551
REMARK  206  A    between atoms: _551  and  _552
REMARK  207  A    between atoms: _551  and  _554
REMARK  208  A    between atoms: _557  and  _559
REMARK  209  A    between atoms: _559  and  _560
REMARK  210  A    between atoms: _563  and  _565
REMARK  211  A    between atoms: _565  and  _566
REMARK  212  A    between atoms: _565  and  _568
REMARK  213  A    between atoms: _568  and  _569
REMARK  214  A    between atoms: _572  and  _574
REMARK  215  A    between atoms: _574  and  _575
REMARK  216  A    between atoms: _574  and  _577
REMARK  217  A    between atoms: _577  and  _578
REMARK  218  A    between atoms: _578  and  _579
REMARK  219  A    between atoms: _582  and  _584
REMARK  220  A    between atoms: _584  and  _585
REMARK  221  A    between atoms: _584  and  _587
REMARK  222  A    between atoms: _587  and  _588
REMARK  223  A    between atoms: _588  and  _589
REMARK  224  A    between atoms: _589  and  _590
REMARK  225  A    between atoms: _590  and  _591
REMARK  226  A    between atoms: _595  and  _597
REMARK  227  A    between atoms: _597  and  _598
REMARK  228  A    between atoms: _597  and  _600
REMARK  229  A    between atoms: _600  and  _601
REMARK  230  A    between atoms: _607  and  _609
REMARK  231  A    between atoms: _609  and  _610
REMARK  232  A    between atoms: _609  and  _612
REMARK  233  A    between atoms: _612  and  _613
REMARK  234  A    between atoms: _619  and  _621
REMARK  235  A    between atoms: _621  and  _622
REMARK  236  A    between atoms: _624  and  _626
REMARK  237  A    between atoms: _626  and  _627
REMARK  238  A    between atoms: _626  and  _629
REMARK  239  A    between atoms: _632  and  _634
REMARK  240  A    between atoms: _634  and  _635
REMARK  241  A    between atoms: _634  and  _637
REMARK  242  A    between atoms: _637  and  _638
REMARK  243  A    between atoms: _638  and  _639
REMARK  244  A    between atoms: _639  and  _640
REMARK  245  A    between atoms: _640  and  _641
REMARK  246  A    between atoms: _645  and  _647
REMARK  247  A    between atoms: _647  and  _648
REMARK  248  A    between atoms: _647  and  _650
REMARK  249  A    between atoms: _650  and  _651
REMARK  250  A    between atoms: _657  and  _659
REMARK  251  A    between atoms: _659  and  _660
REMARK  252  A    between atoms: _659  and  _662
REMARK  253  A    between atoms: _662  and  _663
REMARK  254  A    between atoms: _668  and  _670
REMARK  255  A    between atoms: _670  and  _671
REMARK  256  A    between atoms: _670  and  _673
REMARK  257  A    between atoms: _673  and  _674
REMARK  258  A    between atoms: _679  and  _681
REMARK  259  A    between atoms: _681  and  _682
REMARK  260  A    between atoms: _681  and  _684
REMARK  261  A    between atoms: _687  and  _689
REMARK  262  A    between atoms: _689  and  _690
REMARK  263  A    between atoms: _689  and  _692
REMARK  264  A    between atoms: _692  and  _693
REMARK  265  A    between atoms: _697  and  _698
REMARK  266  A    between atoms: _703  and  _705
REMARK  267  A    between atoms: _705  and  _706
REMARK  268  A    between atoms: _705  and  _708
REMARK  269  A    between atoms: _708  and  _709
REMARK  270  A    between atoms: _714  and  _715
REMARK  271  A    between atoms: _717  and  _719
REMARK  272  A    between atoms: _719  and  _720
REMARK  273  A    between atoms: _719  and  _722
REMARK  274  A    between atoms: _722  and  _723
REMARK  275  A    between atoms: _723  and  _724
REMARK  276  A    between atoms: _724  and  _725
REMARK  277  A    between atoms: _734  and  _736
REMARK  278  A    between atoms: _736  and  _737
REMARK  279  A    between atoms: _736  and  _739
REMARK  280  A    between atoms: _739  and  _740
REMARK  281  A    between atoms: _745  and  _746
REMARK  282  A    between atoms: _748  and  _750
REMARK  283  A    between atoms: _750  and  _751
REMARK  284  A    between atoms: _750  and  _753
REMARK  285  A    between atoms: _753  and  _754
REMARK  286  A    between atoms: _760  and  _762
REMARK  287  A    between atoms: _762  and  _763
REMARK  288  A    between atoms: _762  and  _765
REMARK  289  A    between atoms: _765  and  _766
REMARK  290  A    between atoms: _768  and  _770
REMARK  291  A    between atoms: _770  and  _771
REMARK  292  A    between atoms: _770  and  _773
REMARK  293  A    between atoms: _773  and  _774
REMARK  294  A    between atoms: _780  and  _782
REMARK  295  A    between atoms: _782  and  _783
REMARK  296  A    between atoms: _782  and  _785
REMARK  297  A    between atoms: _785  and  _786
REMARK  298  A    between atoms: _786  and  _787
REMARK                            x       y       z     vdW  Elec       q    Type
REMARK                         _______ _______ _______ _____ _____    ______ ____
ROOT
ATOM      1  NE  ARG A   1       8.825 -11.464 -32.091  0.00  0.00    -0.265 N 
ATOM      2  CZ  ARG A   1       9.651 -11.694 -31.076  0.00  0.00    +0.342 C 
ATOM      3  NH2 ARG A   1       9.162 -11.947 -29.868  0.00  0.00    -0.292 N 
ATOM      4 HH21 ARG A   1       9.808 -12.127 -29.073  0.00  0.00    +0.255 HD
ATOM      5 HH22 ARG A   1       8.133 -11.965 -29.717  0.00  0.00    +0.255 HD
ATOM      6  NH1 ARG A   1      10.969 -11.691 -31.264  0.00  0.00    -0.292 N 
ATOM      7 HH11 ARG A   1      11.609 -11.872 -30.464  0.00  0.00    +0.255 HD
ATOM      8 HH12 ARG A   1      11.359 -11.508 -32.211  0.00  0.00    +0.255 HD
ATOM      9  HE  ARG A   1       7.803 -11.477 -31.897  0.00  0.00    +0.259 HD
ENDROOT
BRANCH   1  10
ATOM     10  CD  ARG A   1       9.256 -11.193 -33.463  0.00  0.00    +0.174 C 
BRANCH  10  11
ATOM     11  CG  ARG A   1       9.118 -12.411 -34.361  0.00  0.00    +0.045 C 
BRANCH  11  12
ATOM     12  CB  ARG A   1      10.079 -13.524 -33.974  0.00  0.00    +0.029 C 
BRANCH  12  13
ATOM     13  CA  ARG A   1       9.782 -14.871 -34.647  0.00  0.00    +0.133 C 
BRANCH  13  14
ATOM     14  N   ARG A   1       8.506 -15.421 -34.189  0.00  0.00    -0.239 NA
ATOM     15  H   ARG A   1       8.380 -15.587 -33.170  0.00  0.00    +0.142 HD
ENDBRANCH  13  14
BRANCH  13  16
ATOM     16  C   ARG A   1      10.900 -15.871 -34.354  0.00  0.00    +0.224 C 
ATOM     17  O   ARG A   1      10.804 -16.647 -33.414  0.00  0.00    -0.287 OA
ENDBRANCH  13  16
ENDBRANCH  12  13
ENDBRANCH  11  12
ENDBRANCH  10  11
ENDBRANCH   1  10
TORSDOF 6
REMARK  Name = ../refined-set-2016/4ca6/4ca6_pocket.pdb
REMARK  298 active torsions:
REMARK  status: ('A' for Active; 'I' for Inactive)
REMARK    1  A    between atoms: _1  and  _3
REMARK    2  A    between atoms: _3  and  _4
REMARK    3  A    between atoms: _3  and  _6
REMARK    4  A    between atoms: _6  and  _7
REMARK    5  A    between atoms: _10  and  _12
REMARK    6  A    between atoms: _12  and  _13
REMARK    7  A    between atoms: _12  and  _15
REMARK    8  A    between atoms: _15  and  _16
REMARK    9  A    between atoms: _18  and  _20
REMARK   10  A    between atoms: _20  and  _21
REMARK   11  A    between atoms: _20  and  _23
REMARK   12  A    between atoms: _23  and  _24
REMARK   13  A    between atoms: _29  and  _30
REMARK   14  A    between atoms: _32  and  _34
REMARK   15  A    between atoms: _34  and  _35
REMARK   16  A    between atoms: _34  and  _37
REMARK   17  A    between atoms: _37  and  _38
REMARK   18  A    between atoms: _48  and  _50
REMARK   19  A    between atoms: _50  and  _51
REMARK   20  A    between atoms: _50  and  _53
REMARK   21  A    between atoms: _53  and  _54
REMARK   22  A    between atoms: _57  and  _59
REMARK   23  A    between atoms: _59  and  _60
REMARK   24  A    between atoms: _59  and  _62
REMARK   25  A    between atoms: _62  and  _63
REMARK   26  A    between atoms: _73  and  _75
REMARK   27  A    between atoms: _75  and  _76
REMARK   28  A    between atoms: _75  and  _78
REMARK   29  A    between atoms: _78  and  _79
REMARK   30  A    between atoms: _79  and  _80
REMARK   31  A    between atoms: _85  and  _87
REMARK   32  A    between atoms: _87  and  _88
REMARK   33  A    between atoms: _87  and  _90
REMARK   34  A    between atoms: _90  and  _91
REMARK   35  A    between atoms: _93  and  _95
REMARK   36  A    between atoms: _95  and  _96
REMARK   37  A    between atoms: _95  and  _98
REMARK   38  A    between atoms: _98  and  _99
REMARK   39  A    between atoms: _99  and  _100
REMARK   40  A    between atoms: _103  and  _105
REMARK   41  A    between atoms: _105  and  _106
REMARK   42  A    between atoms: _105  and  _108
REMARK   43  A    between atoms: _111  and  _113
REMARK   44  A    between atoms: _113  and  _114
REMARK   45  A    between atoms: _113  and  _116
REMARK   46  A    between atoms: _118  and  _120
REMARK   47  A    between atoms: _120  and  _121
REMARK   48  A    between atoms: _120  and  _123
REMARK   49  A    between atoms: _123  and  _124
REMARK   50  A    between atoms: _129  and  _131
REMARK   51  A    between atoms: _131  and  _132
REMARK   52  A    between atoms: _135  and  _137
REMARK   53  A    between atoms: _137  and  _138
REMARK   54  A    between atoms: _137  and  _140
REMARK   55  A    between atoms: _140  and  _141
REMARK   56  A    between atoms: _143  and  _145
REMARK   57  A    between atoms: _145  and  _146
REMARK   58  A    between atoms: _149  and  _151
REMARK   59  A    between atoms: _151  and  _152
REMARK   60  A    between atoms: _151  and  _154
REMARK   61  A    between atoms: _154  and  _155
REMARK   62  A    between atoms: _165  and  _167
REMARK   63  A    between atoms: _167  and  _168
REMARK   64  A    between atoms: _167  and  _170
REMARK   65  A    between atoms: _170  and  _171
REMARK   66  A    between atoms: _174  and  _176
REMARK   67  A    between atoms: _176  and  _177
REMARK   68  A    between atoms: _176  and  _179
REMARK   69  A    between atoms: _179  and  _180
REMARK   70  A    between atoms: _185  and  _186
REMARK   71  A    between atoms: _188  and  _190
REMARK   72  A    between atoms: _190  and  _191
REMARK   73  A    between atoms: _190  and  _193
REMARK   74  A    between atoms: _193  and  _194
REMARK   75  A    between atoms: _194  and  _195
REMARK   76  A    between atoms: _195  and  _196
REMARK   77  A    between atoms: _205  and  _207
REMARK   78  A    between atoms: _207  and  _208
REMARK   79  A    between atoms: _207  and  _210
REMARK   80  A    between atoms: _210  and  _211
REMARK   81  A    between atoms: _214  and  _216
REMARK   82  A    between atoms: _216  and  _217
REMARK   83  A    between atoms: _216  and  _219
REMARK   84  A    between atoms: _219  and  _220
REMARK   85  A    between atoms: _220  and  _221
REMARK   86  A    between atoms: _221  and  _222
REMARK   87  A    between atoms: _222  and  _223
REMARK   88  A    between atoms: _227  and  _229
REMARK   89  A    between atoms: _229  and  _230
REMARK   90  A    between atoms: _229  and  _232
REMARK   91  A    between atoms: _232  and  _233
REMARK   92  A    between atoms: _233  and  _234
REMARK   93  A    between atoms: _239  and  _241
REMARK   94  A    between atoms: _241  and  _242
REMARK   95  A    between atoms: _241  and  _244
REMARK   96  A    between atoms: _244  and  _245
REMARK   97  A    between atoms: _245  and  _246
REMARK   98  A    between atoms: _246  and  _247
REMARK   99  A    between atoms: _256  and  _258
REMARK  100  A    between atoms: _258  and  _259
REMARK  101  A    between atoms: _258  and  _261
REMARK  102  A    between atoms: _261  and  _262
REMARK  103  A    between atoms: _262  and  _263
REMARK  104  A    between atoms: _265  and  _267
REMARK  105  A    between atoms: _267  and  _268
REMARK  106  A    between atoms: _267  and  _270
REMARK  107  A    between atoms: _270  and  _271
REMARK  108  A    between atoms: _274  and  _276
REMARK  109  A    between atoms: _276  and  _277
REMARK  110  A    between atoms: _276  and  _279
REMARK  111  A    between atoms: _279  and  _280
REMARK  112  A    between atoms: _280  and  _281
REMARK  113  A    between atoms: _286  and  _288
REMARK  114  A    between atoms: _288  and  _289
REMARK  115  A    between atoms: _288  and  _291
REMARK  116  A    between atoms: _291  and  _292
REMARK  117  A    between atoms: _295  and  _297
REMARK  118  A    between atoms: _297  and  _298
REMARK  119  A    between atoms: _297  and  _300
REMARK  120  A    between atoms: _300  and  _301
REMARK  121  A    between atoms: _303  and  _305
REMARK  122  A    between atoms: _305  and  _306
REMARK  123  A    between atoms: _305  and  _308
REMARK  124  A    between atoms: _308  and  _309
REMARK  125  A    between atoms: _312  and  _314
REMARK  126  A    between atoms: _314  and  _315
REMARK  127  A    between atoms: _314  and  _317
REMARK  128  A    between atoms: _320  and  _322
REMARK  129  A    between atoms: _322  and  _323
REMARK  130  A    between atoms: _322  and  _325
REMARK  131  A    between atoms: _325  and  _326
REMARK  132  A    between atoms: _331  and  _333
REMARK  133  A    between atoms: _344  and  _347
REMARK  134  A    between atoms: _347  and  _348
REMARK  135  A    between atoms: _348  and  _349
REMARK  136  A    between atoms: _354  and  _357
REMARK  137  A    between atoms: _357  and  _358
REMARK  138  A    between atoms: _358  and  _359
REMARK  139  A    between atoms: _368  and  _369
REMARK  140  A    between atoms: _377  and  _379
REMARK  141  A    between atoms: _379  and  _380
REMARK  142  A    between atoms: _379  and  _382
REMARK  143  A    between atoms: _382  and  _383
REMARK  144  A    between atoms: _386  and  _388
REMARK  145  A    between atoms: _388  and  _389
REMARK  146  A    between atoms: _388  and  _391
REMARK  147  A    between atoms: _391  and  _392
REMARK  148  A    between atoms: _397  and  _398
REMARK  149  A    between atoms: _400  and  _402
REMARK  150  A    between atoms: _402  and  _403
REMARK  151  A    between atoms: _402  and  _405
REMARK  152  A    between atoms: _405  and  _406
REMARK  153  A    between atoms: _411  and  _412
REMARK  154  A    between atoms: _414  and  _416
REMARK  155  A    between atoms: _416  and  _417
REMARK  156  A    between atoms: _416  and  _419
REMARK  157  A    between atoms: _419  and  _420
REMARK  158  A    between atoms: _425  and  _426
REMARK  159  A    between atoms: _428  and  _430
REMARK  160  A    between atoms: _430  and  _431
REMARK  161  A    between atoms: _430  and  _433
REMARK  162  A    between atoms: _433  and  _434
REMARK  163  A    between atoms: _434  and  _435
REMARK  164  A    between atoms: _435  and  _436
REMARK  165  A    between atoms: _445  and  _447
REMARK  166  A    between atoms: _447  and  _448
REMARK  167  A    between atoms: _447  and  _450
REMARK  168  A    between atoms: _450  and  _451
REMARK  169  A    between atoms: _451  and  _452
REMARK  170  A    between atoms: _452  and  _453
REMARK  171  A    between atoms: _462  and  _464
REMARK  172  A    between atoms: _464  and  _465
REMARK  173  A    between atoms: _467  and  _469
REMARK  174  A    between atoms: _469  and  _470
REMARK  175  A    between atoms: _473  and  _475
REMARK  176  A    between atoms: _475  and  _476
REMARK  177  A    between atoms: _475  and  _478
REMARK  178  A    between atoms: _478  and  _479
REMARK  179  A    between atoms: _485  and  _486
REMARK  180  A    between atoms: _491  and  _493
REMARK  181  A    between atoms: _493  and  _494
REMARK  182  A    between atoms: _496  and  _498
REMARK  183  A    between atoms: _498  and  _499
REMARK  184  A    between atoms: _498  and  _501
REMARK  185  A    between atoms: _501  and  _502
REMARK  186  A    between atoms: _508  and  _510
REMARK  187  A    between atoms: _510  and  _511
REMARK  188  A    between atoms: _510  and  _513
REMARK  189  A    between atoms: _513  and  _514
REMARK  190  A    between atoms: _519  and  _521
REMARK  191  A    between atoms: _521  and  _522
REMARK  192  A    between atoms: _521  and  _524
REMARK  193  A    between atoms: _524  and  _525
REMARK  194  A    between atoms: _525  and  _526
REMARK  195  A    between atoms: _526  and  _527
REMARK  196  A    between atoms: _527  and  ZN_792
REMARK  197  A    between atoms: _529  and  _531
REMARK  198  A    between atoms: _531  and  _532
REMARK  199  A    between atoms: _535  and  _537
REMARK  200  A    between atoms: _537  and  _538
REMARK  201  A    between atoms: _540  and  _542
REMARK  202  A    between atoms: _542  and  _543
REMARK  203  A    between atoms: _542  and  _545
REMARK  204  A    between atoms: _545  and  _546
REMARK  205  A    between atoms: _549  and  _551
REMARK  206  A    between atoms: _551  and  _552
REMARK  207  A    between atoms: _551  and  _554
REMARK  208  A    between atoms: _557  and  _559
REMARK  209  A    between atoms: _559  and  _560
REMARK  210  A    between atoms: _563  and  _565
REMARK  211  A    between atoms: _565  and  _566
REMARK  212  A    between atoms: _565  and  _568
REMARK  213  A    between atoms: _568  and  _569
REMARK  214  A    between atoms: _572  and  _574
REMARK  215  A    between atoms: _574  and  _575
REMARK  216  A    between atoms: _574  and  _577
REMARK  217  A    between atoms: _577  and  _578
REMARK  218  A    between atoms: _578  and  _579
REMARK  219  A    between atoms: _582  and  _584
REMARK  220  A    between atoms: _584  and  _585
REMARK  221  A    between atoms: _584  and  _587
REMARK  222  A    between atoms: _587  and  _588
REMARK  223  A    between atoms: _588  and  _589
REMARK  224  A    between atoms: _589  and  _590
REMARK  225  A    between atoms: _590  and  _591
REMARK  226  A    between atoms: _595  and  _597
REMARK  227  A    between atoms: _597  and  _598
REMARK  228  A    between atoms: _597  and  _600
REMARK  229  A    between atoms: _600  and  _601
REMARK  230  A    between atoms: _607  and  _609
REMARK  231  A    between atoms: _609  and  _610
REMARK  232  A    between atoms: _609  and  _612
REMARK  233  A    between atoms: _612  and  _613
REMARK  234  A    between atoms: _619  and  _621
REMARK  235  A    between atoms: _621  and  _622
REMARK  236  A    between atoms: _624  and  _626
REMARK  237  A    between atoms: _626  and  _627
REMARK  238  A    between atoms: _626  and  _629
REMARK  239  A    between atoms: _632  and  _634
REMARK  240  A    between atoms: _634  and  _635
REMARK  241  A    between atoms: _634  and  _637
REMARK  242  A    between atoms: _637  and  _638
REMARK  243  A    between atoms: _638  and  _639
REMARK  244  A    between atoms: _639  and  _640
REMARK  245  A    between atoms: _640  and  _641
REMARK  246  A    between atoms: _645  and  _647
REMARK  247  A    between atoms: _647  and  _648
REMARK  248  A    between atoms: _647  and  _650
REMARK  249  A    between atoms: _650  and  _651
REMARK  250  A    between atoms: _657  and  _659
REMARK  251  A    between atoms: _659  and  _660
REMARK  252  A    between atoms: _659  and  _662
REMARK  253  A    between atoms: _662  and  _663
REMARK  254  A    between atoms: _668  and  _670
REMARK  255  A    between atoms: _670  and  _671
REMARK  256  A    between atoms: _670  and  _673
REMARK  257  A    between atoms: _673  and  _674
REMARK  258  A    between atoms: _679  and  _681
REMARK  259  A    between atoms: _681  and  _682
REMARK  260  A    between atoms: _681  and  _684
REMARK  261  A    between atoms: _687  and  _689
REMARK  262  A    between atoms: _689  and  _690
REMARK  263  A    between atoms: _689  and  _692
REMARK  264  A    between atoms: _692  and  _693
REMARK  265  A    between atoms: _697  and  _698
REMARK  266  A    between atoms: _703  and  _705
REMARK  267  A    between atoms: _705  and  _706
REMARK  268  A    between atoms: _705  and  _708
REMARK  269  A    between atoms: _708  and  _709
REMARK  270  A    between atoms: _714  and  _715
REMARK  271  A    between atoms: _717  and  _719
REMARK  272  A    between atoms: _719  and  _720
REMARK  273  A    between atoms: _719  and  _722
REMARK  274  A    between atoms: _722  and  _723
REMARK  275  A    between atoms: _723  and  _724
REMARK  276  A    between atoms: _724  and  _725
REMARK  277  A    between atoms: _734  and  _736
REMARK  278  A    between atoms: _736  and  _737
REMARK  279  A    between atoms: _736  and  _739
REMARK  280  A    between atoms: _739  and  _740
REMARK  281  A    between atoms: _745  and  _746
REMARK  282  A    between atoms: _748  and  _750
REMARK  283  A    between atoms: _750  and  _751
REMARK  284  A    between atoms: _750  and  _753
REMARK  285  A    between atoms: _753  and  _754
REMARK  286  A    between atoms: _760  and  _762
REMARK  287  A    between atoms: _762  and  _763
REMARK  288  A    between atoms: _762  and  _765
REMARK  289  A    between atoms: _765  and  _766
REMARK  290  A    between atoms: _768  and  _770
REMARK  291  A    between atoms: _770  and  _771
REMARK  292  A    between atoms: _770  and  _773
REMARK  293  A    between atoms: _773  and  _774
REMARK  294  A    between atoms: _780  and  _782
REMARK  295  A    between atoms: _782  and  _783
REMARK  296  A    between atoms: _782  and  _785
REMARK  297  A    between atoms: _785  and  _786
REMARK  298  A    between atoms: _786  and  _787
REMARK                            x       y       z     vdW  Elec       q    Type
REMARK                         _______ _______ _______ _____ _____    ______ ____
ROOT
ATOM      1  C   UNK A   9       4.791 -22.681 -23.511  0.00  0.00    +0.000 C 
ATOM      2  C   UNK A   9       5.022 -21.205 -23.173  0.00  0.00    +0.000 C 
ATOM      3  C   UNK A   9       3.963 -20.636 -22.269  0.00  0.00    +0.000 A 
ATOM      4  N   UNK A   9       3.996 -20.801 -20.903  0.00  0.00    +0.000 NA
ATOM      5  C   UNK A   9       2.935 -20.233 -20.359  0.00  0.00    +0.000 A 
ATOM      6  N   UNK A   9       2.207 -19.704 -21.328  0.00  0.00    +0.000 N 
ATOM      7 ZN   UNK A  10       0.241 -19.418 -21.058  0.00  0.00    +0.000 Zn
ATOM      8  N   UNK A  10      -0.697 -21.201 -21.452  0.00  0.00    +0.000 N 
ATOM      9  C   UNK A  10      -1.330 -21.949 -20.561  0.00  0.00    +0.000 A 
ATOM     10  N   UNK A  10      -1.782 -23.035 -21.169  0.00  0.00    +0.000 NA
ATOM     11  C   UNK A  10      -1.427 -22.994 -22.500  0.00  0.00    +0.000 A 
ATOM     12  C   UNK A  10      -1.821 -24.057 -23.482  0.00  0.00    +0.000 C 
ATOM     13  C   UNK A  10      -1.498 -25.491 -23.050  0.00  0.00    +0.000 C 
ATOM     14  N   UNK A  10      -0.048 -25.736 -23.151  0.00  0.00    +0.000 N 
ATOM     15  C   GLY A  12       0.533 -26.891 -22.828  0.00  0.00    +0.000 C 
ATOM     16  O   GLY A  12      -0.075 -27.828 -22.324  0.00  0.00    +0.000 OA
ATOM     17  CA  GLY A  12       2.032 -26.997 -23.113  0.00  0.00    +0.000 C 
ATOM     18  N   GLY A  12       2.385 -26.452 -24.430  0.00  0.00    +0.000 N 
ATOM     19  H   GLY A  12       3.063 -25.665 -24.489  0.00  0.00    +0.000 HD
ATOM     20  C   MET A  11       1.857 -26.942 -25.554  0.00  0.00    +0.000 C 
ATOM     21  O   MET A  11       1.121 -27.937 -25.569  0.00  0.00    +0.000 OA
ATOM     22  CA  MET A  11       2.150 -26.176 -26.846  0.00  0.00    +0.000 C 
ATOM     23  N   MET A  11       2.372 -24.760 -26.603  0.00  0.00    +0.000 N 
ATOM     24  C   UNK A  10       1.393 -23.977 -26.163  0.00  0.00    +0.000 C 
ATOM     25  C   UNK A  10       1.771 -22.526 -25.892  0.00  0.00    +0.000 C 
ATOM     26  N   UNK A  10       3.119 -22.426 -25.288  0.00  0.00    +0.000 N 
ATOM     27  H   UNK A  10       3.889 -21.995 -25.838  0.00  0.00    +0.000 HD
ATOM     28  O   UNK A  10       0.235 -24.375 -26.001  0.00  0.00    +0.000 OA
ATOM     29  H   MET A  11       3.313 -24.353 -26.777  0.00  0.00    +0.000 HD
ATOM     30  H   UNK A  10       0.557 -24.963 -23.494  0.00  0.00    +0.000 HD
ATOM     31  C   UNK A  10      -0.736 -21.836 -22.669  0.00  0.00    +0.000 A 
ATOM     32  C   UNK A   9       2.823 -19.953 -22.536  0.00  0.00    +0.000 A 
ATOM     33  C   UNK A   9       3.371 -22.873 -24.059  0.00  0.00    +0.000 C 
ATOM     34  O   UNK A   9       2.526 -23.418 -23.366  0.00  0.00    +0.000 OA
ENDROOT
BRANCH  13  35
ATOM     35  C   UNK A  10      -2.305 -26.466 -23.929  0.00  0.00    +0.000 C 
ATOM     36  O   UNK A  10      -3.256 -27.100 -23.460  0.00  0.00    +0.000 OA
ATOM     37  N   ILE A  14      -1.914 -26.590 -25.196  0.00  0.00    +0.000 N 
ATOM     38  H   ILE A  14      -1.147 -25.982 -25.548  0.00  0.00    +0.000 HD
BRANCH  37  39
ATOM     39  CA  ILE A  14      -2.529 -27.555 -26.110  0.00  0.00    +0.000 C 
BRANCH  39  40
ATOM     40  CB  ILE A  14      -1.885 -27.537 -27.525  0.00  0.00    +0.000 C 
ATOM     41  CG2 ILE A  14      -2.541 -28.587 -28.432  0.00  0.00    +0.000 C 
BRANCH  40  42
ATOM     42  CG1 ILE A  14      -1.966 -26.140 -28.161  0.00  0.00    +0.000 C 
ATOM     43  CD1 ILE A  14      -3.369 -25.614 -28.460  0.00  0.00    +0.000 C 
ENDBRANCH  40  42
ENDBRANCH  39  40
BRANCH  39  44
ATOM     44  C   ILE A  14      -2.478 -28.978 -25.575  0.00  0.00    +0.000 C 
ATOM     45  O   ILE A  14      -3.477 -29.711 -25.642  0.00  0.00    +0.000 OA
ENDBRANCH  39  44
ENDBRANCH  37  39
ENDBRANCH  13  35
BRANCH   1  47
ATOM     46  C   PHE A   8       5.769 -24.452 -24.878  0.00  0.00    +0.000 C 
ATOM     47  N   UNK A   9       5.791 -23.198 -24.431  0.00  0.00    +0.000 N 
ATOM     48  H   UNK A   9       6.551 -22.565 -24.752  0.00  0.00    +0.000 HD
ATOM     49  O   PHE A   8       4.915 -25.291 -24.550  0.00  0.00    +0.000 OA
BRANCH  46  50
ATOM     50  CA  PHE A   8       6.855 -24.814 -25.892  0.00  0.00    +0.000 C 
BRANCH  50  52
ATOM     51  C   GLY A   7       6.033 -23.371 -27.712  0.00  0.00    +0.000 C 
ATOM     52  N   PHE A   8       7.031 -23.764 -26.916  0.00  0.00    +0.000 N 
ATOM     53  H   PHE A   8       7.964 -23.316 -27.021  0.00  0.00    +0.000 HD
ATOM     54  O   GLY A   7       4.905 -23.886 -27.690  0.00  0.00    +0.000 OA
BRANCH  51  55
ATOM     55  CA  GLY A   7       6.333 -22.210 -28.659  0.00  0.00    +0.000 C 
BRANCH  55  58
ATOM     56  C   PRO A   6       6.509 -20.553 -26.887  0.00  0.00    +0.000 C 
ATOM     57  O   PRO A   6       5.390 -20.819 -26.487  0.00  0.00    +0.000 OA
ATOM     58  N   GLY A   7       7.049 -21.147 -27.944  0.00  0.00    +0.000 N 
ATOM     59  H   GLY A   7       7.992 -20.855 -28.270  0.00  0.00    +0.000 HD
BRANCH  56  60
ATOM     60  CA  PRO A   6       7.363 -19.516 -26.158  0.00  0.00    +0.000 C 
BRANCH  60  63
ATOM     61  C   ASN A   5       9.144 -21.031 -25.415  0.00  0.00    +0.000 C 
ATOM     62  O   ASN A   5       8.357 -21.746 -24.812  0.00  0.00    +0.000 OA
ATOM     63  N   PRO A   6       8.763 -19.933 -26.074  0.00  0.00    +0.000 N 
ATOM     64  H   PRO A   6       9.488 -19.354 -26.544  0.00  0.00    +0.000 HD
BRANCH  61  65
ATOM     65  CA  ASN A   5      10.645 -21.390 -25.453  0.00  0.00    +0.000 C 
BRANCH  65  67
ATOM     66  C   ALA A   4      10.790 -21.741 -27.863  0.00  0.00    +0.000 C 
ATOM     67  N   ASN A   5      11.212 -21.104 -26.774  0.00  0.00    +0.000 N 
ATOM     68  H   ASN A   5      11.961 -20.387 -26.862  0.00  0.00    +0.000 HD
ATOM     69  O   ALA A   4       9.969 -22.652 -27.824  0.00  0.00    +0.000 OA
BRANCH  66  70
ATOM     70  CA  ALA A   4      11.369 -21.272 -29.212  0.00  0.00    +0.000 C 
BRANCH  70  73
ATOM     71  C   GLY A   3      10.270 -19.114 -29.199  0.00  0.00    +0.000 C 
ATOM     72  O   GLY A   3       9.155 -19.641 -29.193  0.00  0.00    +0.000 OA
ATOM     73  N   ALA A   4      11.403 -19.815 -29.263  0.00  0.00    +0.000 N 
ATOM     74  H   ALA A   4      12.314 -19.321 -29.350  0.00  0.00    +0.000 HD
BRANCH  71  75
ATOM     75  CA  GLY A   3      10.400 -17.598 -29.086  0.00  0.00    +0.000 C 
BRANCH  75  78
ATOM     76  C   ARG A   2      11.719 -17.416 -27.039  0.00  0.00    +0.000 C 
ATOM     77  O   ARG A   2      10.805 -17.906 -26.377  0.00  0.00    +0.000 OA
ATOM     78  N   GLY A   3      11.603 -17.182 -28.345  0.00  0.00    +0.000 N 
ATOM     79  H   GLY A   3      12.373 -16.698 -28.849  0.00  0.00    +0.000 HD
BRANCH  76  80
ATOM     80  CA  ARG A   2      13.074 -17.078 -26.390  0.00  0.00    +0.000 C 
BRANCH  80  82
ATOM     81  C   ARG A   1      14.475 -18.531 -27.745  0.00  0.00    +0.000 C 
ATOM     82  N   ARG A   2      14.186 -17.295 -27.338  0.00  0.00    +0.000 N 
ATOM     83  H   ARG A   2      14.741 -16.487 -27.686  0.00  0.00    +0.000 HD
ATOM     84  O   ARG A   1      13.831 -19.510 -27.371  0.00  0.00    +0.000 OA
BRANCH  81  85
ATOM     85  CA  ARG A   1      15.646 -18.708 -28.724  0.00  0.00    +0.000 C 
BRANCH  85  86
ATOM     86  N   ARG A   1      15.629 -17.713 -29.798  0.00  0.00    +0.000 NA
ATOM     87  H   ARG A   1      16.436 -17.067 -29.909  0.00  0.00    +0.000 HD
ENDBRANCH  85  86
BRANCH  85  88
ATOM     88  CB  ARG A   1      16.981 -18.674 -27.976  0.00  0.00    +0.000 C 
BRANCH  88  89
ATOM     89  CG  ARG A   1      17.157 -19.793 -26.959  0.00  0.00    +0.000 C 
BRANCH  89  90
ATOM     90  SD  ARG A   1      18.798 -19.746 -26.209  0.00  0.00    +0.000 S 
ATOM     91  CE  ARG A   1      18.828 -21.344 -25.389  0.00  0.00    +0.000 C 
ENDBRANCH  89  90
ENDBRANCH  88  89
ENDBRANCH  85  88
ENDBRANCH  81  85
ENDBRANCH  80  82
BRANCH  80  92
ATOM     92  CB  ARG A   2      13.084 -15.646 -25.859  0.00  0.00    +0.000 C 
BRANCH  92  93
ATOM     93  CG  ARG A   2      12.747 -14.634 -26.929  0.00  0.00    +0.000 C 
ATOM     94  OD2 ARG A   2      11.585 -14.187 -26.974  0.00  0.00    +0.000 OA
ATOM     95  OD1 ARG A   2      13.630 -14.301 -27.739  0.00  0.00    +0.000 OA
ENDBRANCH  92  93
ENDBRANCH  80  92
ENDBRANCH  76  80
ENDBRANCH  75  78
BRANCH  75  96
ATOM     96  CB  GLY A   3      10.355 -16.960 -30.468  0.00  0.00    +0.000 C 
BRANCH  96  97
ATOM     97  CG  GLY A   3       9.805 -15.538 -30.455  0.00  0.00    +0.000 C 
BRANCH  97  98
ATOM     98  CD  GLY A   3       8.289 -15.508 -30.413  0.00  0.00    +0.000 C 
ATOM     99  NE2 GLY A   3       7.729 -15.138 -29.253  0.00  0.00    +0.000 N 
ATOM    100 HE21 GLY A   3       8.330 -14.888 -28.442  0.00  0.00    +0.000 HD
ATOM    101 HE22 GLY A   3       6.693 -15.100 -29.164  0.00  0.00    +0.000 HD
ATOM    102  OE1 GLY A   3       7.624 -15.815 -31.409  0.00  0.00    +0.000 OA
ENDBRANCH  97  98
ENDBRANCH  96  97
ENDBRANCH  75  96
ENDBRANCH  71  75
ENDBRANCH  70  73
BRANCH  70 103
ATOM    103  CB  ALA A   4      12.757 -21.870 -29.445  0.00  0.00    +0.000 C 
BRANCH 103 104
ATOM    104  CG  ALA A   4      12.881 -23.396 -29.421  0.00  0.00    +0.000 C 
ATOM    105  CD2 ALA A   4      14.340 -23.773 -29.652  0.00  0.00    +0.000 C 
ATOM    106  CD1 ALA A   4      11.980 -24.090 -30.452  0.00  0.00    +0.000 C 
ENDBRANCH 103 104
ENDBRANCH  70 103
ENDBRANCH  66  70
ENDBRANCH  65  67
BRANCH  65 107
ATOM    107  CB  ASN A   5      11.406 -20.647 -24.340  0.00  0.00    +0.000 C 
BRANCH 107 108
ATOM    108  O   ASN A   5      12.704 -21.200 -24.111  0.00  0.00    +0.000 OA
ATOM    109  H   ASN A   5      13.155 -20.693 -23.390  0.00  0.00    +0.000 HD
ENDBRANCH 107 108
ENDBRANCH  65 107
ENDBRANCH  61  65
ENDBRANCH  60  63
BRANCH  60 110
ATOM    110  CB  PRO A   6       7.204 -18.126 -26.817  0.00  0.00    +0.000 C 
ATOM    111  CG2 PRO A   6       5.725 -17.721 -26.911  0.00  0.00    +0.000 C 
BRANCH 110 112
ATOM    112  OG1 PRO A   6       7.899 -17.151 -26.019  0.00  0.00    +0.000 OA
ATOM    113  HG1 PRO A   6       8.858 -17.391 -25.969  0.00  0.00    +0.000 HD
ENDBRANCH 110 112
ENDBRANCH  60 110
ENDBRANCH  56  60
ENDBRANCH  55  58
BRANCH  55 114
ATOM    114  CB  GLY A   7       7.121 -22.649 -29.921  0.00  0.00    +0.000 C 
ATOM    115  CG2 GLY A   7       6.642 -23.976 -30.471  0.00  0.00    +0.000 C 
ATOM    116  CG1 GLY A   7       7.067 -21.549 -30.974  0.00  0.00    +0.000 C 
ENDBRANCH  55 114
ENDBRANCH  51  55
ENDBRANCH  50  52
BRANCH  50 117
ATOM    117  CB  PHE A   8       8.177 -25.110 -25.173  0.00  0.00    +0.000 C 
BRANCH 117 118
ATOM    118  CG  PHE A   8       9.115 -25.917 -26.000  0.00  0.00    +0.000 A 
ATOM    119  CD2 PHE A   8       9.361 -27.249 -26.029  0.00  0.00    +0.000 A 
ATOM    120  NE2 PHE A   8      10.300 -27.462 -27.008  0.00  0.00    +0.000 NA
ATOM    121  CE1 PHE A   8      10.594 -26.307 -27.583  0.00  0.00    +0.000 A 
ATOM    122  ND1 PHE A   8       9.881 -25.358 -27.001  0.00  0.00    +0.000 NA
ENDBRANCH 117 118
ENDBRANCH  50 117
ENDBRANCH  46  50
ENDBRANCH   1  47
BRANCH  25 123
ATOM    123  C   UNK A  10       1.688 -21.724 -27.201  0.00  0.00    +0.000 C 
BRANCH 123 124
ATOM    124  C   UNK A  10       2.243 -20.309 -27.116  0.00  0.00    +0.000 C 
BRANCH 124 125
ATOM    125  C   UNK A  10       1.556 -19.450 -26.055  0.00  0.00    +0.000 C 
ATOM    126  O   UNK A  10       2.239 -18.581 -25.475  0.00  0.00    +0.000 OA
ATOM    127  O   UNK A  10       0.342 -19.625 -25.802  0.00  0.00    +0.000 OA
ENDBRANCH 124 125
ENDBRANCH 123 124
ENDBRANCH  25 123
BRANCH  22 128
ATOM    128  CB  MET A  11       3.294 -26.795 -27.662  0.00  0.00    +0.000 C 
BRANCH 128 129
ATOM    129  CG  MET A  11       2.920 -28.134 -28.279  0.00  0.00    +0.000 C 
BRANCH 129 130
ATOM    130  SD  MET A  11       4.108 -28.747 -29.500  0.00  0.00    +0.000 S 
ATOM    131  CE  MET A  11       3.825 -27.606 -30.842  0.00  0.00    +0.000 C 
ENDBRANCH 129 130
ENDBRANCH 128 129
ENDBRANCH  22 128
BRANCH   7 132
ATOM    132  O   UNK A  10       0.467 -19.509 -19.039  0.00  0.00    +0.000 OA
BRANCH 132 133
ATOM    133  C   UNK A  10      -0.506 -19.480 -18.269  0.00  0.00    +0.000 C 
ATOM    134  O   UNK A  10      -1.655 -19.196 -18.681  0.00  0.00    +0.000 OA
BRANCH 133 135
ATOM    135  C   UNK A  10      -0.274 -19.821 -16.799  0.00  0.00    +0.000 C 
BRANCH 135 136
ATOM    136  C   UNK A  10       0.937 -20.741 -16.576  0.00  0.00    +0.000 C 
BRANCH 136 137
ATOM    137  C   UNK A  10       0.949 -22.066 -17.373  0.00  0.00    +0.000 C 
BRANCH 137 138
ATOM    138  C   UNK A  10       2.321 -22.744 -17.199  0.00  0.00    +0.000 C 
ATOM    139  N   MET A  11       2.426 -23.720 -16.298  0.00  0.00    +0.000 N 
ATOM    140  H   MET A  11       1.577 -24.030 -15.783  0.00  0.00    +0.000 HD
ATOM    141  O   UNK A  10       3.269 -22.371 -17.882  0.00  0.00    +0.000 OA
BRANCH 139 142
ATOM    142  CA  MET A  11       3.712 -24.367 -16.016  0.00  0.00    +0.000 C 
ATOM    143  CB  MET A  11       3.723 -24.949 -14.609  0.00  0.00    +0.000 C 
BRANCH 142 144
ATOM    144  C   MET A  11       4.140 -25.447 -17.011  0.00  0.00    +0.000 C 
ATOM    145  O   MET A  11       5.336 -25.687 -17.159  0.00  0.00    +0.000 OA
ENDBRANCH 142 144
ENDBRANCH 139 142
ENDBRANCH 137 138
BRANCH 137 146
ATOM    146  N   UNK A  10      -0.155 -22.917 -16.981  0.00  0.00    +0.000 N 
ATOM    147  H   UNK A  10      -0.670 -22.684 -16.108  0.00  0.00    +0.000 HD
ATOM    148  C   UNK A   9      -0.547 -23.984 -17.679  0.00  0.00    +0.000 C 
ATOM    149  O   UNK A   9      -0.011 -24.372 -18.729  0.00  0.00    +0.000 OA
BRANCH 148 150
ATOM    150  C   UNK A   9      -1.725 -24.734 -17.086  0.00  0.00    +0.000 C 
BRANCH 150 151
ATOM    151  N   UNK A   9      -1.604 -24.822 -15.631  0.00  0.00    +0.000 N 
ATOM    152  H   UNK A   9      -2.318 -24.366 -15.028  0.00  0.00    +0.000 HD
ATOM    153  C   PHE A   8      -0.588 -25.480 -15.067  0.00  0.00    +0.000 C 
ATOM    154  O   PHE A   8       0.324 -25.989 -15.717  0.00  0.00    +0.000 OA
BRANCH 153 155
ATOM    155  CA  PHE A   8      -0.590 -25.582 -13.544  0.00  0.00    +0.000 C 
BRANCH 155 156
ATOM    156  N   PHE A   8      -0.948 -24.299 -12.930  0.00  0.00    +0.000 N 
ATOM    157  H   PHE A   8      -1.777 -24.247 -12.304  0.00  0.00    +0.000 HD
ATOM    158  C   GLY A   7      -0.235 -23.203 -13.158  0.00  0.00    +0.000 C 
ATOM    159  O   GLY A   7       0.806 -23.229 -13.803  0.00  0.00    +0.000 OA
BRANCH 158 160
ATOM    160  CA  GLY A   7      -0.765 -21.882 -12.603  0.00  0.00    +0.000 C 
BRANCH 160 161
ATOM    161  N   GLY A   7      -2.228 -21.737 -12.691  0.00  0.00    +0.000 N 
ATOM    162  H   GLY A   7      -2.764 -21.584 -11.813  0.00  0.00    +0.000 HD
ATOM    163  C   PRO A   6      -2.899 -21.792 -13.841  0.00  0.00    +0.000 C 
ATOM    164  O   PRO A   6      -2.353 -21.842 -14.957  0.00  0.00    +0.000 OA
BRANCH 163 165
ATOM    165  CA  PRO A   6      -4.436 -21.793 -13.741  0.00  0.00    +0.000 C 
ATOM    166  N   PRO A   6      -4.948 -22.384 -12.499  0.00  0.00    +0.000 N 
ATOM    167  CD  PRO A   6      -5.889 -21.478 -11.810  0.00  0.00    +0.000 C 
ATOM    168  CG  PRO A   6      -6.254 -20.490 -12.887  0.00  0.00    +0.000 C 
ATOM    169  C   ASN A   5      -4.647 -23.676 -12.255  0.00  0.00    +0.000 C 
ATOM    170  O   ASN A   5      -3.905 -24.336 -12.989  0.00  0.00    +0.000 OA
ATOM    171  CB  PRO A   6      -5.002 -20.371 -13.708  0.00  0.00    +0.000 C 
BRANCH 169 172
ATOM    172  CA  ASN A   5      -5.289 -24.365 -11.043  0.00  0.00    +0.000 C 
BRANCH 172 173
ATOM    173  N   ASN A   5      -5.024 -25.792 -11.209  0.00  0.00    +0.000 N 
ATOM    174  C   ALA A   4      -5.852 -26.734 -10.779  0.00  0.00    +0.000 C 
ATOM    175  O   ALA A   4      -6.684 -26.532  -9.887  0.00  0.00    +0.000 OA
ATOM    176  H   ASN A   5      -4.146 -26.082 -11.686  0.00  0.00    +0.000 HD
BRANCH 174 177
ATOM    177  CA  ALA A   4      -5.705 -28.112 -11.455  0.00  0.00    +0.000 C 
ATOM    178  CB  ALA A   4      -4.593 -28.931 -10.825  0.00  0.00    +0.000 C 
BRANCH 177 179
ATOM    179  N   ALA A   4      -5.451 -27.920 -12.894  0.00  0.00    +0.000 N 
ATOM    180  H   ALA A   4      -4.619 -28.366 -13.330  0.00  0.00    +0.000 HD
ATOM    181  C   GLY A   3      -6.267 -27.186 -13.646  0.00  0.00    +0.000 C 
ATOM    182  O   GLY A   3      -7.328 -26.723 -13.224  0.00  0.00    +0.000 OA
BRANCH 181 183
ATOM    183  CA  GLY A   3      -5.833 -26.917 -15.083  0.00  0.00    +0.000 C 
BRANCH 183 184
ATOM    184  N   GLY A   3      -6.985 -26.460 -15.854  0.00  0.00    +0.000 N 
ATOM    185  H   GLY A   3      -7.053 -25.466 -16.151  0.00  0.00    +0.000 HD
ATOM    186  C   ARG A   2      -7.946 -27.317 -16.175  0.00  0.00    +0.000 C 
ATOM    187  O   ARG A   2      -7.861 -28.516 -15.947  0.00  0.00    +0.000 OA
BRANCH 186 188
ATOM    188  CA  ARG A   2      -9.189 -26.757 -16.837  0.00  0.00    +0.000 C 
BRANCH 188 189
ATOM    189  N   ARG A   2      -9.976 -27.909 -17.261  0.00  0.00    +0.000 N 
ATOM    190  H   ARG A   2      -9.930 -28.783 -16.699  0.00  0.00    +0.000 HD
ATOM    191  C   ARG A   1     -10.749 -27.881 -18.340  0.00  0.00    +0.000 C 
ATOM    192  O   ARG A   1     -10.917 -26.870 -19.028  0.00  0.00    +0.000 OA
BRANCH 191 193
ATOM    193  CA  ARG A   1     -11.457 -29.185 -18.663  0.00  0.00    +0.000 C 
BRANCH 193 194
ATOM    194  N   ARG A   1     -12.462 -29.482 -17.625  0.00  0.00    +0.000 NA
ATOM    195  H   ARG A   1     -13.430 -29.120 -17.745  0.00  0.00    +0.000 HD
ENDBRANCH 193 194
BRANCH 193 196
ATOM    196  CB  ARG A   1     -12.072 -29.139 -20.072  0.00  0.00    +0.000 C 
BRANCH 196 197
ATOM    197  CG  ARG A   1     -12.477 -30.495 -20.617  0.00  0.00    +0.000 C 
BRANCH 197 198
ATOM    198  CD  ARG A   1     -12.973 -30.397 -22.059  0.00  0.00    +0.000 C 
BRANCH 198 199
ATOM    199  NE  ARG A   1     -14.074 -31.324 -22.248  0.00  0.00    +0.330 N 
ATOM    200  HE  ARG A   1     -14.193 -32.067 -21.530  0.00  0.00    +0.000 HD
ATOM    201  CZ  ARG A   1     -14.945 -31.313 -23.254  0.00  0.00    +0.000 C 
ATOM    202  NH2 ARG A   1     -15.897 -32.224 -23.275  0.00  0.00    +0.330 N 
ATOM    203 HH21 ARG A   1     -15.956 -32.932 -22.515  0.00  0.00    +0.000 HD
ATOM    204 HH22 ARG A   1     -16.589 -32.235 -24.051  0.00  0.00    +0.000 HD
ATOM    205  NH1 ARG A   1     -14.871 -30.422 -24.231  0.00  0.00    +0.330 N 
ATOM    206 HH11 ARG A   1     -14.117 -29.705 -24.225  0.00  0.00    +0.000 HD
ATOM    207 HH12 ARG A   1     -15.567 -30.439 -25.004  0.00  0.00    +0.000 HD
ENDBRANCH 198 199
ENDBRANCH 197 198
ENDBRANCH 196 197
ENDBRANCH 193 196
ENDBRANCH 191 193
ENDBRANCH 188 189
BRANCH 188 208
ATOM    208  CB  ARG A   2      -9.953 -25.908 -15.820  0.00  0.00    +0.000 C 
BRANCH 208 209
ATOM    209  CG  ARG A   2     -11.444 -25.768 -16.070  0.00  0.00    +0.000 C 
BRANCH 209 210
ATOM    210  CD  ARG A   2     -12.209 -25.492 -14.786  0.00  0.00    +0.000 C 
BRANCH 210 211
ATOM    211  NE  ARG A   2     -13.638 -25.384 -15.073  0.00  0.00    +0.330 N 
ATOM    212  HE  ARG A   2     -14.211 -26.251 -15.038  0.00  0.00    +0.000 HD
ATOM    213  CZ  ARG A   2     -14.249 -24.242 -15.376  0.00  0.00    +0.000 C 
ATOM    214  NH2 ARG A   2     -13.554 -23.111 -15.416  0.00  0.00    +0.330 N 
ATOM    215 HH21 ARG A   2     -12.535 -23.120 -15.211  0.00  0.00    +0.000 HD
ATOM    216 HH22 ARG A   2     -14.029 -22.217 -15.653  0.00  0.00    +0.000 HD
ATOM    217  NH1 ARG A   2     -15.552 -24.231 -15.629  0.00  0.00    +0.330 N 
ATOM    218 HH11 ARG A   2     -16.097 -25.116 -15.590  0.00  0.00    +0.000 HD
ATOM    219 HH12 ARG A   2     -16.028 -23.337 -15.866  0.00  0.00    +0.000 HD
ENDBRANCH 210 211
ENDBRANCH 209 210
ENDBRANCH 208 209
ENDBRANCH 188 208
ENDBRANCH 186 188
ENDBRANCH 183 184
ENDBRANCH 181 183
ENDBRANCH 177 179
ENDBRANCH 174 177
ENDBRANCH 172 173
BRANCH 172 220
ATOM    220  CB  ASN A   5      -4.816 -23.815  -9.668  0.00  0.00    +0.000 C 
BRANCH 220 221
ATOM    221  CG  ASN A   5      -3.295 -23.801  -9.493  0.00  0.00    +0.000 C 
ATOM    222  ND2 ASN A   5      -2.851 -24.187  -8.307  0.00  0.00    +0.000 N 
ATOM    223 HD21 ASN A   5      -3.521 -24.518  -7.584  0.00  0.00    +0.000 HD
ATOM    224 HD22 ASN A   5      -1.832 -24.159  -8.099  0.00  0.00    +0.000 HD
ATOM    225  OD1 ASN A   5      -2.538 -23.401 -10.382  0.00  0.00    +0.000 OA
ENDBRANCH 220 221
ENDBRANCH 172 220
ENDBRANCH 169 172
ENDBRANCH 163 165
ENDBRANCH 160 161
ENDBRANCH 158 160
ENDBRANCH 155 156
BRANCH 155 226
ATOM    226  CB  PHE A   8      -1.582 -26.676 -13.169  0.00  0.00    +0.000 C 
BRANCH 226 227
ATOM    227  CG  PHE A   8      -1.302 -27.361 -11.863  0.00  0.00    +0.000 A 
ATOM    228  CD2 PHE A   8      -1.333 -26.656 -10.657  0.00  0.00    +0.000 A 
ATOM    229  CE2 PHE A   8      -1.104 -27.303  -9.453  0.00  0.00    +0.000 A 
ATOM    230  CZ  PHE A   8      -0.862 -28.670  -9.443  0.00  0.00    +0.000 A 
ATOM    231  CE1 PHE A   8      -0.872 -29.394 -10.633  0.00  0.00    +0.000 A 
ATOM    232  CD1 PHE A   8      -1.089 -28.735 -11.832  0.00  0.00    +0.000 A 
ENDBRANCH 226 227
ENDBRANCH 155 226
ENDBRANCH 153 155
ENDBRANCH 150 151
BRANCH 150 233
ATOM    233  C   UNK A   9      -3.026 -24.037 -17.481  0.00  0.00    +0.000 C 
BRANCH 233 234
ATOM    234  C   UNK A   9      -3.794 -24.760 -18.538  0.00  0.00    +0.000 A 
ATOM    235  C   UNK A   9      -4.949 -25.465 -18.472  0.00  0.00    +0.000 A 
ATOM    236  N   UNK A   9      -5.213 -25.928 -19.737  0.00  0.00    +0.000 NA
ATOM    237  C   UNK A   9      -4.255 -25.519 -20.552  0.00  0.00    +0.000 A 
ATOM    238  N   UNK A   9      -3.374 -24.828 -19.849  0.00  0.00    +0.000 NA
ENDBRANCH 233 234
ENDBRANCH 150 233
ENDBRANCH 148 150
ENDBRANCH 137 146
ENDBRANCH 136 137
ENDBRANCH 135 136
ENDBRANCH 133 135
ENDBRANCH 132 133
ENDBRANCH   7 132
TORSDOF 85
REMARK  Name = ../refined-set-2016/4ca6/4ca6_pocket.pdb
REMARK  298 active torsions:
REMARK  status: ('A' for Active; 'I' for Inactive)
REMARK    1  A    between atoms: _1  and  _3
REMARK    2  A    between atoms: _3  and  _4
REMARK    3  A    between atoms: _3  and  _6
REMARK    4  A    between atoms: _6  and  _7
REMARK    5  A    between atoms: _10  and  _12
REMARK    6  A    between atoms: _12  and  _13
REMARK    7  A    between atoms: _12  and  _15
REMARK    8  A    between atoms: _15  and  _16
REMARK    9  A    between atoms: _18  and  _20
REMARK   10  A    between atoms: _20  and  _21
REMARK   11  A    between atoms: _20  and  _23
REMARK   12  A    between atoms: _23  and  _24
REMARK   13  A    between atoms: _29  and  _30
REMARK   14  A    between atoms: _32  and  _34
REMARK   15  A    between atoms: _34  and  _35
REMARK   16  A    between atoms: _34  and  _37
REMARK   17  A    between atoms: _37  and  _38
REMARK   18  A    between atoms: _48  and  _50
REMARK   19  A    between atoms: _50  and  _51
REMARK   20  A    between atoms: _50  and  _53
REMARK   21  A    between atoms: _53  and  _54
REMARK   22  A    between atoms: _57  and  _59
REMARK   23  A    between atoms: _59  and  _60
REMARK   24  A    between atoms: _59  and  _62
REMARK   25  A    between atoms: _62  and  _63
REMARK   26  A    between atoms: _73  and  _75
REMARK   27  A    between atoms: _75  and  _76
REMARK   28  A    between atoms: _75  and  _78
REMARK   29  A    between atoms: _78  and  _79
REMARK   30  A    between atoms: _79  and  _80
REMARK   31  A    between atoms: _85  and  _87
REMARK   32  A    between atoms: _87  and  _88
REMARK   33  A    between atoms: _87  and  _90
REMARK   34  A    between atoms: _90  and  _91
REMARK   35  A    between atoms: _93  and  _95
REMARK   36  A    between atoms: _95  and  _96
REMARK   37  A    between atoms: _95  and  _98
REMARK   38  A    between atoms: _98  and  _99
REMARK   39  A    between atoms: _99  and  _100
REMARK   40  A    between atoms: _103  and  _105
REMARK   41  A    between atoms: _105  and  _106
REMARK   42  A    between atoms: _105  and  _108
REMARK   43  A    between atoms: _111  and  _113
REMARK   44  A    between atoms: _113  and  _114
REMARK   45  A    between atoms: _113  and  _116
REMARK   46  A    between atoms: _118  and  _120
REMARK   47  A    between atoms: _120  and  _121
REMARK   48  A    between atoms: _120  and  _123
REMARK   49  A    between atoms: _123  and  _124
REMARK   50  A    between atoms: _129  and  _131
REMARK   51  A    between atoms: _131  and  _132
REMARK   52  A    between atoms: _135  and  _137
REMARK   53  A    between atoms: _137  and  _138
REMARK   54  A    between atoms: _137  and  _140
REMARK   55  A    between atoms: _140  and  _141
REMARK   56  A    between atoms: _143  and  _145
REMARK   57  A    between atoms: _145  and  _146
REMARK   58  A    between atoms: _149  and  _151
REMARK   59  A    between atoms: _151  and  _152
REMARK   60  A    between atoms: _151  and  _154
REMARK   61  A    between atoms: _154  and  _155
REMARK   62  A    between atoms: _165  and  _167
REMARK   63  A    between atoms: _167  and  _168
REMARK   64  A    between atoms: _167  and  _170
REMARK   65  A    between atoms: _170  and  _171
REMARK   66  A    between atoms: _174  and  _176
REMARK   67  A    between atoms: _176  and  _177
REMARK   68  A    between atoms: _176  and  _179
REMARK   69  A    between atoms: _179  and  _180
REMARK   70  A    between atoms: _185  and  _186
REMARK   71  A    between atoms: _188  and  _190
REMARK   72  A    between atoms: _190  and  _191
REMARK   73  A    between atoms: _190  and  _193
REMARK   74  A    between atoms: _193  and  _194
REMARK   75  A    between atoms: _194  and  _195
REMARK   76  A    between atoms: _195  and  _196
REMARK   77  A    between atoms: _205  and  _207
REMARK   78  A    between atoms: _207  and  _208
REMARK   79  A    between atoms: _207  and  _210
REMARK   80  A    between atoms: _210  and  _211
REMARK   81  A    between atoms: _214  and  _216
REMARK   82  A    between atoms: _216  and  _217
REMARK   83  A    between atoms: _216  and  _219
REMARK   84  A    between atoms: _219  and  _220
REMARK   85  A    between atoms: _220  and  _221
REMARK   86  A    between atoms: _221  and  _222
REMARK   87  A    between atoms: _222  and  _223
REMARK   88  A    between atoms: _227  and  _229
REMARK   89  A    between atoms: _229  and  _230
REMARK   90  A    between atoms: _229  and  _232
REMARK   91  A    between atoms: _232  and  _233
REMARK   92  A    between atoms: _233  and  _234
REMARK   93  A    between atoms: _239  and  _241
REMARK   94  A    between atoms: _241  and  _242
REMARK   95  A    between atoms: _241  and  _244
REMARK   96  A    between atoms: _244  and  _245
REMARK   97  A    between atoms: _245  and  _246
REMARK   98  A    between atoms: _246  and  _247
REMARK   99  A    between atoms: _256  and  _258
REMARK  100  A    between atoms: _258  and  _259
REMARK  101  A    between atoms: _258  and  _261
REMARK  102  A    between atoms: _261  and  _262
REMARK  103  A    between atoms: _262  and  _263
REMARK  104  A    between atoms: _265  and  _267
REMARK  105  A    between atoms: _267  and  _268
REMARK  106  A    between atoms: _267  and  _270
REMARK  107  A    between atoms: _270  and  _271
REMARK  108  A    between atoms: _274  and  _276
REMARK  109  A    between atoms: _276  and  _277
REMARK  110  A    between atoms: _276  and  _279
REMARK  111  A    between atoms: _279  and  _280
REMARK  112  A    between atoms: _280  and  _281
REMARK  113  A    between atoms: _286  and  _288
REMARK  114  A    between atoms: _288  and  _289
REMARK  115  A    between atoms: _288  and  _291
REMARK  116  A    between atoms: _291  and  _292
REMARK  117  A    between atoms: _295  and  _297
REMARK  118  A    between atoms: _297  and  _298
REMARK  119  A    between atoms: _297  and  _300
REMARK  120  A    between atoms: _300  and  _301
REMARK  121  A    between atoms: _303  and  _305
REMARK  122  A    between atoms: _305  and  _306
REMARK  123  A    between atoms: _305  and  _308
REMARK  124  A    between atoms: _308  and  _309
REMARK  125  A    between atoms: _312  and  _314
REMARK  126  A    between atoms: _314  and  _315
REMARK  127  A    between atoms: _314  and  _317
REMARK  128  A    between atoms: _320  and  _322
REMARK  129  A    between atoms: _322  and  _323
REMARK  130  A    between atoms: _322  and  _325
REMARK  131  A    between atoms: _325  and  _326
REMARK  132  A    between atoms: _331  and  _333
REMARK  133  A    between atoms: _344  and  _347
REMARK  134  A    between atoms: _347  and  _348
REMARK  135  A    between atoms: _348  and  _349
REMARK  136  A    between atoms: _354  and  _357
REMARK  137  A    between atoms: _357  and  _358
REMARK  138  A    between atoms: _358  and  _359
REMARK  139  A    between atoms: _368  and  _369
REMARK  140  A    between atoms: _377  and  _379
REMARK  141  A    between atoms: _379  and  _380
REMARK  142  A    between atoms: _379  and  _382
REMARK  143  A    between atoms: _382  and  _383
REMARK  144  A    between atoms: _386  and  _388
REMARK  145  A    between atoms: _388  and  _389
REMARK  146  A    between atoms: _388  and  _391
REMARK  147  A    between atoms: _391  and  _392
REMARK  148  A    between atoms: _397  and  _398
REMARK  149  A    between atoms: _400  and  _402
REMARK  150  A    between atoms: _402  and  _403
REMARK  151  A    between atoms: _402  and  _405
REMARK  152  A    between atoms: _405  and  _406
REMARK  153  A    between atoms: _411  and  _412
REMARK  154  A    between atoms: _414  and  _416
REMARK  155  A    between atoms: _416  and  _417
REMARK  156  A    between atoms: _416  and  _419
REMARK  157  A    between atoms: _419  and  _420
REMARK  158  A    between atoms: _425  and  _426
REMARK  159  A    between atoms: _428  and  _430
REMARK  160  A    between atoms: _430  and  _431
REMARK  161  A    between atoms: _430  and  _433
REMARK  162  A    between atoms: _433  and  _434
REMARK  163  A    between atoms: _434  and  _435
REMARK  164  A    between atoms: _435  and  _436
REMARK  165  A    between atoms: _445  and  _447
REMARK  166  A    between atoms: _447  and  _448
REMARK  167  A    between atoms: _447  and  _450
REMARK  168  A    between atoms: _450  and  _451
REMARK  169  A    between atoms: _451  and  _452
REMARK  170  A    between atoms: _452  and  _453
REMARK  171  A    between atoms: _462  and  _464
REMARK  172  A    between atoms: _464  and  _465
REMARK  173  A    between atoms: _467  and  _469
REMARK  174  A    between atoms: _469  and  _470
REMARK  175  A    between atoms: _473  and  _475
REMARK  176  A    between atoms: _475  and  _476
REMARK  177  A    between atoms: _475  and  _478
REMARK  178  A    between atoms: _478  and  _479
REMARK  179  A    between atoms: _485  and  _486
REMARK  180  A    between atoms: _491  and  _493
REMARK  181  A    between atoms: _493  and  _494
REMARK  182  A    between atoms: _496  and  _498
REMARK  183  A    between atoms: _498  and  _499
REMARK  184  A    between atoms: _498  and  _501
REMARK  185  A    between atoms: _501  and  _502
REMARK  186  A    between atoms: _508  and  _510
REMARK  187  A    between atoms: _510  and  _511
REMARK  188  A    between atoms: _510  and  _513
REMARK  189  A    between atoms: _513  and  _514
REMARK  190  A    between atoms: _519  and  _521
REMARK  191  A    between atoms: _521  and  _522
REMARK  192  A    between atoms: _521  and  _524
REMARK  193  A    between atoms: _524  and  _525
REMARK  194  A    between atoms: _525  and  _526
REMARK  195  A    between atoms: _526  and  _527
REMARK  196  A    between atoms: _527  and  ZN_792
REMARK  197  A    between atoms: _529  and  _531
REMARK  198  A    between atoms: _531  and  _532
REMARK  199  A    between atoms: _535  and  _537
REMARK  200  A    between atoms: _537  and  _538
REMARK  201  A    between atoms: _540  and  _542
REMARK  202  A    between atoms: _542  and  _543
REMARK  203  A    between atoms: _542  and  _545
REMARK  204  A    between atoms: _545  and  _546
REMARK  205  A    between atoms: _549  and  _551
REMARK  206  A    between atoms: _551  and  _552
REMARK  207  A    between atoms: _551  and  _554
REMARK  208  A    between atoms: _557  and  _559
REMARK  209  A    between atoms: _559  and  _560
REMARK  210  A    between atoms: _563  and  _565
REMARK  211  A    between atoms: _565  and  _566
REMARK  212  A    between atoms: _565  and  _568
REMARK  213  A    between atoms: _568  and  _569
REMARK  214  A    between atoms: _572  and  _574
REMARK  215  A    between atoms: _574  and  _575
REMARK  216  A    between atoms: _574  and  _577
REMARK  217  A    between atoms: _577  and  _578
REMARK  218  A    between atoms: _578  and  _579
REMARK  219  A    between atoms: _582  and  _584
REMARK  220  A    between atoms: _584  and  _585
REMARK  221  A    between atoms: _584  and  _587
REMARK  222  A    between atoms: _587  and  _588
REMARK  223  A    between atoms: _588  and  _589
REMARK  224  A    between atoms: _589  and  _590
REMARK  225  A    between atoms: _590  and  _591
REMARK  226  A    between atoms: _595  and  _597
REMARK  227  A    between atoms: _597  and  _598
REMARK  228  A    between atoms: _597  and  _600
REMARK  229  A    between atoms: _600  and  _601
REMARK  230  A    between atoms: _607  and  _609
REMARK  231  A    between atoms: _609  and  _610
REMARK  232  A    between atoms: _609  and  _612
REMARK  233  A    between atoms: _612  and  _613
REMARK  234  A    between atoms: _619  and  _621
REMARK  235  A    between atoms: _621  and  _622
REMARK  236  A    between atoms: _624  and  _626
REMARK  237  A    between atoms: _626  and  _627
REMARK  238  A    between atoms: _626  and  _629
REMARK  239  A    between atoms: _632  and  _634
REMARK  240  A    between atoms: _634  and  _635
REMARK  241  A    between atoms: _634  and  _637
REMARK  242  A    between atoms: _637  and  _638
REMARK  243  A    between atoms: _638  and  _639
REMARK  244  A    between atoms: _639  and  _640
REMARK  245  A    between atoms: _640  and  _641
REMARK  246  A    between atoms: _645  and  _647
REMARK  247  A    between atoms: _647  and  _648
REMARK  248  A    between atoms: _647  and  _650
REMARK  249  A    between atoms: _650  and  _651
REMARK  250  A    between atoms: _657  and  _659
REMARK  251  A    between atoms: _659  and  _660
REMARK  252  A    between atoms: _659  and  _662
REMARK  253  A    between atoms: _662  and  _663
REMARK  254  A    between atoms: _668  and  _670
REMARK  255  A    between atoms: _670  and  _671
REMARK  256  A    between atoms: _670  and  _673
REMARK  257  A    between atoms: _673  and  _674
REMARK  258  A    between atoms: _679  and  _681
REMARK  259  A    between atoms: _681  and  _682
REMARK  260  A    between atoms: _681  and  _684
REMARK  261  A    between atoms: _687  and  _689
REMARK  262  A    between atoms: _689  and  _690
REMARK  263  A    between atoms: _689  and  _692
REMARK  264  A    between atoms: _692  and  _693
REMARK  265  A    between atoms: _697  and  _698
REMARK  266  A    between atoms: _703  and  _705
REMARK  267  A    between atoms: _705  and  _706
REMARK  268  A    between atoms: _705  and  _708
REMARK  269  A    between atoms: _708  and  _709
REMARK  270  A    between atoms: _714  and  _715
REMARK  271  A    between atoms: _717  and  _719
REMARK  272  A    between atoms: _719  and  _720
REMARK  273  A    between atoms: _719  and  _722
REMARK  274  A    between atoms: _722  and  _723
REMARK  275  A    between atoms: _723  and  _724
REMARK  276  A    between atoms: _724  and  _725
REMARK  277  A    between atoms: _734  and  _736
REMARK  278  A    between atoms: _736  and  _737
REMARK  279  A    between atoms: _736  and  _739
REMARK  280  A    between atoms: _739  and  _740
REMARK  281  A    between atoms: _745  and  _746
REMARK  282  A    between atoms: _748  and  _750
REMARK  283  A    between atoms: _750  and  _751
REMARK  284  A    between atoms: _750  and  _753
REMARK  285  A    between atoms: _753  and  _754
REMARK  286  A    between atoms: _760  and  _762
REMARK  287  A    between atoms: _762  and  _763
REMARK  288  A    between atoms: _762  and  _765
REMARK  289  A    between atoms: _765  and  _766
REMARK  290  A    between atoms: _768  and  _770
REMARK  291  A    between atoms: _770  and  _771
REMARK  292  A    between atoms: _770  and  _773
REMARK  293  A    between atoms: _773  and  _774
REMARK  294  A    between atoms: _780  and  _782
REMARK  295  A    between atoms: _782  and  _783
REMARK  296  A    between atoms: _782  and  _785
REMARK  297  A    between atoms: _785  and  _786
REMARK  298  A    between atoms: _786  and  _787
REMARK                            x       y       z     vdW  Elec       q    Type
REMARK                         _______ _______ _______ _____ _____    ______ ____
ROOT
ATOM      1  C   TYR A   1      -4.642 -30.390 -22.078  0.00  0.00    +0.239 C 
ATOM      2  O   TYR A   1      -5.345 -31.317 -21.633  0.00  0.00    -0.274 OA
ATOM      3  N   TYR A   2      -5.019 -29.604 -23.095  0.00  0.00    -0.298 N 
ATOM      4  H   TYR A   2      -4.370 -28.862 -23.427  0.00  0.00    +0.150 HD
ENDROOT
BRANCH   1   5
ATOM      5  CA  TYR A   1      -3.250 -30.125 -21.470  0.00  0.00    +0.149 C 
BRANCH   5   6
ATOM      6  N   TYR A   1      -2.272 -30.043 -22.547  0.00  0.00    -0.238 NA
ATOM      7  H   TYR A   1      -1.674 -29.196 -22.625  0.00  0.00    +0.142 HD
ENDBRANCH   5   6
BRANCH   5   8
ATOM      8  CB  TYR A   1      -3.256 -28.827 -20.656  0.00  0.00    +0.053 C 
BRANCH   8   9
ATOM      9  CG  TYR A   1      -3.273 -28.996 -19.151  0.00  0.00    -0.020 A 
ATOM     10  CD2 TYR A   1      -2.571 -28.116 -18.343  0.00  0.00    -0.001 A 
ATOM     11  CE2 TYR A   1      -2.589 -28.231 -16.961  0.00  0.00    +0.036 A 
ATOM     12  CZ  TYR A   1      -3.306 -29.238 -16.360  0.00  0.00    +0.134 A 
ATOM     13  CE1 TYR A   1      -4.024 -30.134 -17.137  0.00  0.00    +0.036 A 
ATOM     14  CD1 TYR A   1      -4.020 -30.004 -18.529  0.00  0.00    -0.001 A 
BRANCH  12  15
ATOM     15  OH  TYR A   1      -3.295 -29.317 -14.972  0.00  0.00    -0.506 OA
ATOM     16  HH  TYR A   1      -3.850 -30.084 -14.682  0.00  0.00    +0.292 HD
ENDBRANCH  12  15
ENDBRANCH   8   9
ENDBRANCH   5   8
ENDBRANCH   1   5
BRANCH   3  17
ATOM     17  CA  TYR A   2      -6.335 -29.761 -23.761  0.00  0.00    +0.141 C 
BRANCH  17  18
ATOM     18  C   TYR A   2      -6.542 -31.145 -24.352  0.00  0.00    +0.227 C 
ATOM     19  O   TYR A   2      -7.653 -31.696 -24.296  0.00  0.00    -0.286 OA
ENDBRANCH  17  18
BRANCH  17  20
ATOM     20  CB  TYR A   2      -6.538 -28.754 -24.910  0.00  0.00    +0.054 C 
BRANCH  20  21
ATOM     21  CG  TYR A   2      -6.409 -27.272 -24.616  0.00  0.00    -0.020 A 
ATOM     22  CD2 TYR A   2      -6.728 -26.731 -23.360  0.00  0.00    -0.001 A 
ATOM     23  CE2 TYR A   2      -6.623 -25.365 -23.134  0.00  0.00    +0.036 A 
ATOM     24  CZ  TYR A   2      -6.203 -24.516 -24.166  0.00  0.00    +0.134 A 
ATOM     25  CE1 TYR A   2      -5.894 -25.029 -25.409  0.00  0.00    +0.036 A 
ATOM     26  CD1 TYR A   2      -6.006 -26.393 -25.631  0.00  0.00    -0.001 A 
BRANCH  24  27
ATOM     27  OH  TYR A   2      -6.088 -23.152 -23.970  0.00  0.00    -0.506 OA
ATOM     28  HH  TYR A   2      -6.689 -22.678 -24.597  0.00  0.00    +0.292 HD
ENDBRANCH  24  27
ENDBRANCH  20  21
ENDBRANCH  17  20
ENDBRANCH   3  17
TORSDOF 10
REMARK  Name = ../refined-set-2016/4ca6/4ca6_pocket.pdb
REMARK  298 active torsions:
REMARK  status: ('A' for Active; 'I' for Inactive)
REMARK    1  A    between atoms: _1  and  _3
REMARK    2  A    between atoms: _3  and  _4
REMARK    3  A    between atoms: _3  and  _6
REMARK    4  A    between atoms: _6  and  _7
REMARK    5  A    between atoms: _10  and  _12
REMARK    6  A    between atoms: _12  and  _13
REMARK    7  A    between atoms: _12  and  _15
REMARK    8  A    between atoms: _15  and  _16
REMARK    9  A    between atoms: _18  and  _20
REMARK   10  A    between atoms: _20  and  _21
REMARK   11  A    between atoms: _20  and  _23
REMARK   12  A    between atoms: _23  and  _24
REMARK   13  A    between atoms: _29  and  _30
REMARK   14  A    between atoms: _32  and  _34
REMARK   15  A    between atoms: _34  and  _35
REMARK   16  A    between atoms: _34  and  _37
REMARK   17  A    between atoms: _37  and  _38
REMARK   18  A    between atoms: _48  and  _50
REMARK   19  A    between atoms: _50  and  _51
REMARK   20  A    between atoms: _50  and  _53
REMARK   21  A    between atoms: _53  and  _54
REMARK   22  A    between atoms: _57  and  _59
REMARK   23  A    between atoms: _59  and  _60
REMARK   24  A    between atoms: _59  and  _62
REMARK   25  A    between atoms: _62  and  _63
REMARK   26  A    between atoms: _73  and  _75
REMARK   27  A    between atoms: _75  and  _76
REMARK   28  A    between atoms: _75  and  _78
REMARK   29  A    between atoms: _78  and  _79
REMARK   30  A    between atoms: _79  and  _80
REMARK   31  A    between atoms: _85  and  _87
REMARK   32  A    between atoms: _87  and  _88
REMARK   33  A    between atoms: _87  and  _90
REMARK   34  A    between atoms: _90  and  _91
REMARK   35  A    between atoms: _93  and  _95
REMARK   36  A    between atoms: _95  and  _96
REMARK   37  A    between atoms: _95  and  _98
REMARK   38  A    between atoms: _98  and  _99
REMARK   39  A    between atoms: _99  and  _100
REMARK   40  A    between atoms: _103  and  _105
REMARK   41  A    between atoms: _105  and  _106
REMARK   42  A    between atoms: _105  and  _108
REMARK   43  A    between atoms: _111  and  _113
REMARK   44  A    between atoms: _113  and  _114
REMARK   45  A    between atoms: _113  and  _116
REMARK   46  A    between atoms: _118  and  _120
REMARK   47  A    between atoms: _120  and  _121
REMARK   48  A    between atoms: _120  and  _123
REMARK   49  A    between atoms: _123  and  _124
REMARK   50  A    between atoms: _129  and  _131
REMARK   51  A    between atoms: _131  and  _132
REMARK   52  A    between atoms: _135  and  _137
REMARK   53  A    between atoms: _137  and  _138
REMARK   54  A    between atoms: _137  and  _140
REMARK   55  A    between atoms: _140  and  _141
REMARK   56  A    between atoms: _143  and  _145
REMARK   57  A    between atoms: _145  and  _146
REMARK   58  A    between atoms: _149  and  _151
REMARK   59  A    between atoms: _151  and  _152
REMARK   60  A    between atoms: _151  and  _154
REMARK   61  A    between atoms: _154  and  _155
REMARK   62  A    between atoms: _165  and  _167
REMARK   63  A    between atoms: _167  and  _168
REMARK   64  A    between atoms: _167  and  _170
REMARK   65  A    between atoms: _170  and  _171
REMARK   66  A    between atoms: _174  and  _176
REMARK   67  A    between atoms: _176  and  _177
REMARK   68  A    between atoms: _176  and  _179
REMARK   69  A    between atoms: _179  and  _180
REMARK   70  A    between atoms: _185  and  _186
REMARK   71  A    between atoms: _188  and  _190
REMARK   72  A    between atoms: _190  and  _191
REMARK   73  A    between atoms: _190  and  _193
REMARK   74  A    between atoms: _193  and  _194
REMARK   75  A    between atoms: _194  and  _195
REMARK   76  A    between atoms: _195  and  _196
REMARK   77  A    between atoms: _205  and  _207
REMARK   78  A    between atoms: _207  and  _208
REMARK   79  A    between atoms: _207  and  _210
REMARK   80  A    between atoms: _210  and  _211
REMARK   81  A    between atoms: _214  and  _216
REMARK   82  A    between atoms: _216  and  _217
REMARK   83  A    between atoms: _216  and  _219
REMARK   84  A    between atoms: _219  and  _220
REMARK   85  A    between atoms: _220  and  _221
REMARK   86  A    between atoms: _221  and  _222
REMARK   87  A    between atoms: _222  and  _223
REMARK   88  A    between atoms: _227  and  _229
REMARK   89  A    between atoms: _229  and  _230
REMARK   90  A    between atoms: _229  and  _232
REMARK   91  A    between atoms: _232  and  _233
REMARK   92  A    between atoms: _233  and  _234
REMARK   93  A    between atoms: _239  and  _241
REMARK   94  A    between atoms: _241  and  _242
REMARK   95  A    between atoms: _241  and  _244
REMARK   96  A    between atoms: _244  and  _245
REMARK   97  A    between atoms: _245  and  _246
REMARK   98  A    between atoms: _246  and  _247
REMARK   99  A    between atoms: _256  and  _258
REMARK  100  A    between atoms: _258  and  _259
REMARK  101  A    between atoms: _258  and  _261
REMARK  102  A    between atoms: _261  and  _262
REMARK  103  A    between atoms: _262  and  _263
REMARK  104  A    between atoms: _265  and  _267
REMARK  105  A    between atoms: _267  and  _268
REMARK  106  A    between atoms: _267  and  _270
REMARK  107  A    between atoms: _270  and  _271
REMARK  108  A    between atoms: _274  and  _276
REMARK  109  A    between atoms: _276  and  _277
REMARK  110  A    between atoms: _276  and  _279
REMARK  111  A    between atoms: _279  and  _280
REMARK  112  A    between atoms: _280  and  _281
REMARK  113  A    between atoms: _286  and  _288
REMARK  114  A    between atoms: _288  and  _289
REMARK  115  A    between atoms: _288  and  _291
REMARK  116  A    between atoms: _291  and  _292
REMARK  117  A    between atoms: _295  and  _297
REMARK  118  A    between atoms: _297  and  _298
REMARK  119  A    between atoms: _297  and  _300
REMARK  120  A    between atoms: _300  and  _301
REMARK  121  A    between atoms: _303  and  _305
REMARK  122  A    between atoms: _305  and  _306
REMARK  123  A    between atoms: _305  and  _308
REMARK  124  A    between atoms: _308  and  _309
REMARK  125  A    between atoms: _312  and  _314
REMARK  126  A    between atoms: _314  and  _315
REMARK  127  A    between atoms: _314  and  _317
REMARK  128  A    between atoms: _320  and  _322
REMARK  129  A    between atoms: _322  and  _323
REMARK  130  A    between atoms: _322  and  _325
REMARK  131  A    between atoms: _325  and  _326
REMARK  132  A    between atoms: _331  and  _333
REMARK  133  A    between atoms: _344  and  _347
REMARK  134  A    between atoms: _347  and  _348
REMARK  135  A    between atoms: _348  and  _349
REMARK  136  A    between atoms: _354  and  _357
REMARK  137  A    between atoms: _357  and  _358
REMARK  138  A    between atoms: _358  and  _359
REMARK  139  A    between atoms: _368  and  _369
REMARK  140  A    between atoms: _377  and  _379
REMARK  141  A    between atoms: _379  and  _380
REMARK  142  A    between atoms: _379  and  _382
REMARK  143  A    between atoms: _382  and  _383
REMARK  144  A    between atoms: _386  and  _388
REMARK  145  A    between atoms: _388  and  _389
REMARK  146  A    between atoms: _388  and  _391
REMARK  147  A    between atoms: _391  and  _392
REMARK  148  A    between atoms: _397  and  _398
REMARK  149  A    between atoms: _400  and  _402
REMARK  150  A    between atoms: _402  and  _403
REMARK  151  A    between atoms: _402  and  _405
REMARK  152  A    between atoms: _405  and  _406
REMARK  153  A    between atoms: _411  and  _412
REMARK  154  A    between atoms: _414  and  _416
REMARK  155  A    between atoms: _416  and  _417
REMARK  156  A    between atoms: _416  and  _419
REMARK  157  A    between atoms: _419  and  _420
REMARK  158  A    between atoms: _425  and  _426
REMARK  159  A    between atoms: _428  and  _430
REMARK  160  A    between atoms: _430  and  _431
REMARK  161  A    between atoms: _430  and  _433
REMARK  162  A    between atoms: _433  and  _434
REMARK  163  A    between atoms: _434  and  _435
REMARK  164  A    between atoms: _435  and  _436
REMARK  165  A    between atoms: _445  and  _447
REMARK  166  A    between atoms: _447  and  _448
REMARK  167  A    between atoms: _447  and  _450
REMARK  168  A    between atoms: _450  and  _451
REMARK  169  A    between atoms: _451  and  _452
REMARK  170  A    between atoms: _452  and  _453
REMARK  171  A    between atoms: _462  and  _464
REMARK  172  A    between atoms: _464  and  _465
REMARK  173  A    between atoms: _467  and  _469
REMARK  174  A    between atoms: _469  and  _470
REMARK  175  A    between atoms: _473  and  _475
REMARK  176  A    between atoms: _475  and  _476
REMARK  177  A    between atoms: _475  and  _478
REMARK  178  A    between atoms: _478  and  _479
REMARK  179  A    between atoms: _485  and  _486
REMARK  180  A    between atoms: _491  and  _493
REMARK  181  A    between atoms: _493  and  _494
REMARK  182  A    between atoms: _496  and  _498
REMARK  183  A    between atoms: _498  and  _499
REMARK  184  A    between atoms: _498  and  _501
REMARK  185  A    between atoms: _501  and  _502
REMARK  186  A    between atoms: _508  and  _510
REMARK  187  A    between atoms: _510  and  _511
REMARK  188  A    between atoms: _510  and  _513
REMARK  189  A    between atoms: _513  and  _514
REMARK  190  A    between atoms: _519  and  _521
REMARK  191  A    between atoms: _521  and  _522
REMARK  192  A    between atoms: _521  and  _524
REMARK  193  A    between atoms: _524  and  _525
REMARK  194  A    between atoms: _525  and  _526
REMARK  195  A    between atoms: _526  and  _527
REMARK  196  A    between atoms: _527  and  ZN_792
REMARK  197  A    between atoms: _529  and  _531
REMARK  198  A    between atoms: _531  and  _532
REMARK  199  A    between atoms: _535  and  _537
REMARK  200  A    between atoms: _537  and  _538
REMARK  201  A    between atoms: _540  and  _542
REMARK  202  A    between atoms: _542  and  _543
REMARK  203  A    between atoms: _542  and  _545
REMARK  204  A    between atoms: _545  and  _546
REMARK  205  A    between atoms: _549  and  _551
REMARK  206  A    between atoms: _551  and  _552
REMARK  207  A    between atoms: _551  and  _554
REMARK  208  A    between atoms: _557  and  _559
REMARK  209  A    between atoms: _559  and  _560
REMARK  210  A    between atoms: _563  and  _565
REMARK  211  A    between atoms: _565  and  _566
REMARK  212  A    between atoms: _565  and  _568
REMARK  213  A    between atoms: _568  and  _569
REMARK  214  A    between atoms: _572  and  _574
REMARK  215  A    between atoms: _574  and  _575
REMARK  216  A    between atoms: _574  and  _577
REMARK  217  A    between atoms: _577  and  _578
REMARK  218  A    between atoms: _578  and  _579
REMARK  219  A    between atoms: _582  and  _584
REMARK  220  A    between atoms: _584  and  _585
REMARK  221  A    between atoms: _584  and  _587
REMARK  222  A    between atoms: _587  and  _588
REMARK  223  A    between atoms: _588  and  _589
REMARK  224  A    between atoms: _589  and  _590
REMARK  225  A    between atoms: _590  and  _591
REMARK  226  A    between atoms: _595  and  _597
REMARK  227  A    between atoms: _597  and  _598
REMARK  228  A    between atoms: _597  and  _600
REMARK  229  A    between atoms: _600  and  _601
REMARK  230  A    between atoms: _607  and  _609
REMARK  231  A    between atoms: _609  and  _610
REMARK  232  A    between atoms: _609  and  _612
REMARK  233  A    between atoms: _612  and  _613
REMARK  234  A    between atoms: _619  and  _621
REMARK  235  A    between atoms: _621  and  _622
REMARK  236  A    between atoms: _624  and  _626
REMARK  237  A    between atoms: _626  and  _627
REMARK  238  A    between atoms: _626  and  _629
REMARK  239  A    between atoms: _632  and  _634
REMARK  240  A    between atoms: _634  and  _635
REMARK  241  A    between atoms: _634  and  _637
REMARK  242  A    between atoms: _637  and  _638
REMARK  243  A    between atoms: _638  and  _639
REMARK  244  A    between atoms: _639  and  _640
REMARK  245  A    between atoms: _640  and  _641
REMARK  246  A    between atoms: _645  and  _647
REMARK  247  A    between atoms: _647  and  _648
REMARK  248  A    between atoms: _647  and  _650
REMARK  249  A    between atoms: _650  and  _651
REMARK  250  A    between atoms: _657  and  _659
REMARK  251  A    between atoms: _659  and  _660
REMARK  252  A    between atoms: _659  and  _662
REMARK  253  A    between atoms: _662  and  _663
REMARK  254  A    between atoms: _668  and  _670
REMARK  255  A    between atoms: _670  and  _671
REMARK  256  A    between atoms: _670  and  _673
REMARK  257  A    between atoms: _673  and  _674
REMARK  258  A    between atoms: _679  and  _681
REMARK  259  A    between atoms: _681  and  _682
REMARK  260  A    between atoms: _681  and  _684
REMARK  261  A    between atoms: _687  and  _689
REMARK  262  A    between atoms: _689  and  _690
REMARK  263  A    between atoms: _689  and  _692
REMARK  264  A    between atoms: _692  and  _693
REMARK  265  A    between atoms: _697  and  _698
REMARK  266  A    between atoms: _703  and  _705
REMARK  267  A    between atoms: _705  and  _706
REMARK  268  A    between atoms: _705  and  _708
REMARK  269  A    between atoms: _708  and  _709
REMARK  270  A    between atoms: _714  and  _715
REMARK  271  A    between atoms: _717  and  _719
REMARK  272  A    between atoms: _719  and  _720
REMARK  273  A    between atoms: _719  and  _722
REMARK  274  A    between atoms: _722  and  _723
REMARK  275  A    between atoms: _723  and  _724
REMARK  276  A    between atoms: _724  and  _725
REMARK  277  A    between atoms: _734  and  _736
REMARK  278  A    between atoms: _736  and  _737
REMARK  279  A    between atoms: _736  and  _739
REMARK  280  A    between atoms: _739  and  _740
REMARK  281  A    between atoms: _745  and  _746
REMARK  282  A    between atoms: _748  and  _750
REMARK  283  A    between atoms: _750  and  _751
REMARK  284  A    between atoms: _750  and  _753
REMARK  285  A    between atoms: _753  and  _754
REMARK  286  A    between atoms: _760  and  _762
REMARK  287  A    between atoms: _762  and  _763
REMARK  288  A    between atoms: _762  and  _765
REMARK  289  A    between atoms: _765  and  _766
REMARK  290  A    between atoms: _768  and  _770
REMARK  291  A    between atoms: _770  and  _771
REMARK  292  A    between atoms: _770  and  _773
REMARK  293  A    between atoms: _773  and  _774
REMARK  294  A    between atoms: _780  and  _782
REMARK  295  A    between atoms: _782  and  _783
REMARK  296  A    between atoms: _782  and  _785
REMARK  297  A    between atoms: _785  and  _786
REMARK  298  A    between atoms: _786  and  _787
REMARK                            x       y       z     vdW  Elec       q    Type
REMARK                         _______ _______ _______ _____ _____    ______ ____
ROOT
ATOM      1  CG  TYR A   1      -8.180 -31.367 -19.788  0.00  0.00    -0.020 A 
ATOM      2  CD2 TYR A   1      -7.456 -30.581 -18.884  0.00  0.00    -0.001 A 
ATOM      3  CE2 TYR A   1      -7.320 -29.212 -19.066  0.00  0.00    +0.036 A 
ATOM      4  CZ  TYR A   1      -7.921 -28.605 -20.143  0.00  0.00    +0.134 A 
ATOM      5  CE1 TYR A   1      -8.674 -29.359 -21.047  0.00  0.00    +0.036 A 
ATOM      6  CD1 TYR A   1      -8.800 -30.726 -20.857  0.00  0.00    -0.001 A 
ENDROOT
BRANCH   4   7
ATOM      7  OH  TYR A   1      -7.798 -27.242 -20.311  0.00  0.00    -0.506 OA
ATOM      8  HH  TYR A   1      -8.285 -26.966 -21.127  0.00  0.00    +0.292 HD
ENDBRANCH   4   7
BRANCH   1   9
ATOM      9  CB  TYR A   1      -8.346 -32.852 -19.532  0.00  0.00    +0.051 C 
BRANCH   9  10
ATOM     10  CA  TYR A   1      -8.375 -33.829 -20.723  0.00  0.00    +0.137 C 
BRANCH  10  11
ATOM     11  N   TYR A   1      -7.098 -33.851 -21.443  0.00  0.00    -0.239 NA
ATOM     12  H   TYR A   1      -6.706 -32.968 -21.829  0.00  0.00    +0.142 HD
ENDBRANCH  10  11
BRANCH  10  13
ATOM     13  C   TYR A   1      -9.630 -33.645 -21.579  0.00  0.00    +0.224 C 
ATOM     14  O   TYR A   1     -10.721 -33.408 -21.043  0.00  0.00    -0.287 OA
ENDBRANCH  10  13
ENDBRANCH   9  10
ENDBRANCH   1   9
TORSDOF 5
REMARK  Name = ../refined-set-2016/4ca6/4ca6_pocket.pdb
REMARK  298 active torsions:
REMARK  status: ('A' for Active; 'I' for Inactive)
REMARK    1  A    between atoms: _1  and  _3
REMARK    2  A    between atoms: _3  and  _4
REMARK    3  A    between atoms: _3  and  _6
REMARK    4  A    between atoms: _6  and  _7
REMARK    5  A    between atoms: _10  and  _12
REMARK    6  A    between atoms: _12  and  _13
REMARK    7  A    between atoms: _12  and  _15
REMARK    8  A    between atoms: _15  and  _16
REMARK    9  A    between atoms: _18  and  _20
REMARK   10  A    between atoms: _20  and  _21
REMARK   11  A    between atoms: _20  and  _23
REMARK   12  A    between atoms: _23  and  _24
REMARK   13  A    between atoms: _29  and  _30
REMARK   14  A    between atoms: _32  and  _34
REMARK   15  A    between atoms: _34  and  _35
REMARK   16  A    between atoms: _34  and  _37
REMARK   17  A    between atoms: _37  and  _38
REMARK   18  A    between atoms: _48  and  _50
REMARK   19  A    between atoms: _50  and  _51
REMARK   20  A    between atoms: _50  and  _53
REMARK   21  A    between atoms: _53  and  _54
REMARK   22  A    between atoms: _57  and  _59
REMARK   23  A    between atoms: _59  and  _60
REMARK   24  A    between atoms: _59  and  _62
REMARK   25  A    between atoms: _62  and  _63
REMARK   26  A    between atoms: _73  and  _75
REMARK   27  A    between atoms: _75  and  _76
REMARK   28  A    between atoms: _75  and  _78
REMARK   29  A    between atoms: _78  and  _79
REMARK   30  A    between atoms: _79  and  _80
REMARK   31  A    between atoms: _85  and  _87
REMARK   32  A    between atoms: _87  and  _88
REMARK   33  A    between atoms: _87  and  _90
REMARK   34  A    between atoms: _90  and  _91
REMARK   35  A    between atoms: _93  and  _95
REMARK   36  A    between atoms: _95  and  _96
REMARK   37  A    between atoms: _95  and  _98
REMARK   38  A    between atoms: _98  and  _99
REMARK   39  A    between atoms: _99  and  _100
REMARK   40  A    between atoms: _103  and  _105
REMARK   41  A    between atoms: _105  and  _106
REMARK   42  A    between atoms: _105  and  _108
REMARK   43  A    between atoms: _111  and  _113
REMARK   44  A    between atoms: _113  and  _114
REMARK   45  A    between atoms: _113  and  _116
REMARK   46  A    between atoms: _118  and  _120
REMARK   47  A    between atoms: _120  and  _121
REMARK   48  A    between atoms: _120  and  _123
REMARK   49  A    between atoms: _123  and  _124
REMARK   50  A    between atoms: _129  and  _131
REMARK   51  A    between atoms: _131  and  _132
REMARK   52  A    between atoms: _135  and  _137
REMARK   53  A    between atoms: _137  and  _138
REMARK   54  A    between atoms: _137  and  _140
REMARK   55  A    between atoms: _140  and  _141
REMARK   56  A    between atoms: _143  and  _145
REMARK   57  A    between atoms: _145  and  _146
REMARK   58  A    between atoms: _149  and  _151
REMARK   59  A    between atoms: _151  and  _152
REMARK   60  A    between atoms: _151  and  _154
REMARK   61  A    between atoms: _154  and  _155
REMARK   62  A    between atoms: _165  and  _167
REMARK   63  A    between atoms: _167  and  _168
REMARK   64  A    between atoms: _167  and  _170
REMARK   65  A    between atoms: _170  and  _171
REMARK   66  A    between atoms: _174  and  _176
REMARK   67  A    between atoms: _176  and  _177
REMARK   68  A    between atoms: _176  and  _179
REMARK   69  A    between atoms: _179  and  _180
REMARK   70  A    between atoms: _185  and  _186
REMARK   71  A    between atoms: _188  and  _190
REMARK   72  A    between atoms: _190  and  _191
REMARK   73  A    between atoms: _190  and  _193
REMARK   74  A    between atoms: _193  and  _194
REMARK   75  A    between atoms: _194  and  _195
REMARK   76  A    between atoms: _195  and  _196
REMARK   77  A    between atoms: _205  and  _207
REMARK   78  A    between atoms: _207  and  _208
REMARK   79  A    between atoms: _207  and  _210
REMARK   80  A    between atoms: _210  and  _211
REMARK   81  A    between atoms: _214  and  _216
REMARK   82  A    between atoms: _216  and  _217
REMARK   83  A    between atoms: _216  and  _219
REMARK   84  A    between atoms: _219  and  _220
REMARK   85  A    between atoms: _220  and  _221
REMARK   86  A    between atoms: _221  and  _222
REMARK   87  A    between atoms: _222  and  _223
REMARK   88  A    between atoms: _227  and  _229
REMARK   89  A    between atoms: _229  and  _230
REMARK   90  A    between atoms: _229  and  _232
REMARK   91  A    between atoms: _232  and  _233
REMARK   92  A    between atoms: _233  and  _234
REMARK   93  A    between atoms: _239  and  _241
REMARK   94  A    between atoms: _241  and  _242
REMARK   95  A    between atoms: _241  and  _244
REMARK   96  A    between atoms: _244  and  _245
REMARK   97  A    between atoms: _245  and  _246
REMARK   98  A    between atoms: _246  and  _247
REMARK   99  A    between atoms: _256  and  _258
REMARK  100  A    between atoms: _258  and  _259
REMARK  101  A    between atoms: _258  and  _261
REMARK  102  A    between atoms: _261  and  _262
REMARK  103  A    between atoms: _262  and  _263
REMARK  104  A    between atoms: _265  and  _267
REMARK  105  A    between atoms: _267  and  _268
REMARK  106  A    between atoms: _267  and  _270
REMARK  107  A    between atoms: _270  and  _271
REMARK  108  A    between atoms: _274  and  _276
REMARK  109  A    between atoms: _276  and  _277
REMARK  110  A    between atoms: _276  and  _279
REMARK  111  A    between atoms: _279  and  _280
REMARK  112  A    between atoms: _280  and  _281
REMARK  113  A    between atoms: _286  and  _288
REMARK  114  A    between atoms: _288  and  _289
REMARK  115  A    between atoms: _288  and  _291
REMARK  116  A    between atoms: _291  and  _292
REMARK  117  A    between atoms: _295  and  _297
REMARK  118  A    between atoms: _297  and  _298
REMARK  119  A    between atoms: _297  and  _300
REMARK  120  A    between atoms: _300  and  _301
REMARK  121  A    between atoms: _303  and  _305
REMARK  122  A    between atoms: _305  and  _306
REMARK  123  A    between atoms: _305  and  _308
REMARK  124  A    between atoms: _308  and  _309
REMARK  125  A    between atoms: _312  and  _314
REMARK  126  A    between atoms: _314  and  _315
REMARK  127  A    between atoms: _314  and  _317
REMARK  128  A    between atoms: _320  and  _322
REMARK  129  A    between atoms: _322  and  _323
REMARK  130  A    between atoms: _322  and  _325
REMARK  131  A    between atoms: _325  and  _326
REMARK  132  A    between atoms: _331  and  _333
REMARK  133  A    between atoms: _344  and  _347
REMARK  134  A    between atoms: _347  and  _348
REMARK  135  A    between atoms: _348  and  _349
REMARK  136  A    between atoms: _354  and  _357
REMARK  137  A    between atoms: _357  and  _358
REMARK  138  A    between atoms: _358  and  _359
REMARK  139  A    between atoms: _368  and  _369
REMARK  140  A    between atoms: _377  and  _379
REMARK  141  A    between atoms: _379  and  _380
REMARK  142  A    between atoms: _379  and  _382
REMARK  143  A    between atoms: _382  and  _383
REMARK  144  A    between atoms: _386  and  _388
REMARK  145  A    between atoms: _388  and  _389
REMARK  146  A    between atoms: _388  and  _391
REMARK  147  A    between atoms: _391  and  _392
REMARK  148  A    between atoms: _397  and  _398
REMARK  149  A    between atoms: _400  and  _402
REMARK  150  A    between atoms: _402  and  _403
REMARK  151  A    between atoms: _402  and  _405
REMARK  152  A    between atoms: _405  and  _406
REMARK  153  A    between atoms: _411  and  _412
REMARK  154  A    between atoms: _414  and  _416
REMARK  155  A    between atoms: _416  and  _417
REMARK  156  A    between atoms: _416  and  _419
REMARK  157  A    between atoms: _419  and  _420
REMARK  158  A    between atoms: _425  and  _426
REMARK  159  A    between atoms: _428  and  _430
REMARK  160  A    between atoms: _430  and  _431
REMARK  161  A    between atoms: _430  and  _433
REMARK  162  A    between atoms: _433  and  _434
REMARK  163  A    between atoms: _434  and  _435
REMARK  164  A    between atoms: _435  and  _436
REMARK  165  A    between atoms: _445  and  _447
REMARK  166  A    between atoms: _447  and  _448
REMARK  167  A    between atoms: _447  and  _450
REMARK  168  A    between atoms: _450  and  _451
REMARK  169  A    between atoms: _451  and  _452
REMARK  170  A    between atoms: _452  and  _453
REMARK  171  A    between atoms: _462  and  _464
REMARK  172  A    between atoms: _464  and  _465
REMARK  173  A    between atoms: _467  and  _469
REMARK  174  A    between atoms: _469  and  _470
REMARK  175  A    between atoms: _473  and  _475
REMARK  176  A    between atoms: _475  and  _476
REMARK  177  A    between atoms: _475  and  _478
REMARK  178  A    between atoms: _478  and  _479
REMARK  179  A    between atoms: _485  and  _486
REMARK  180  A    between atoms: _491  and  _493
REMARK  181  A    between atoms: _493  and  _494
REMARK  182  A    between atoms: _496  and  _498
REMARK  183  A    between atoms: _498  and  _499
REMARK  184  A    between atoms: _498  and  _501
REMARK  185  A    between atoms: _501  and  _502
REMARK  186  A    between atoms: _508  and  _510
REMARK  187  A    between atoms: _510  and  _511
REMARK  188  A    between atoms: _510  and  _513
REMARK  189  A    between atoms: _513  and  _514
REMARK  190  A    between atoms: _519  and  _521
REMARK  191  A    between atoms: _521  and  _522
REMARK  192  A    between atoms: _521  and  _524
REMARK  193  A    between atoms: _524  and  _525
REMARK  194  A    between atoms: _525  and  _526
REMARK  195  A    between atoms: _526  and  _527
REMARK  196  A    between atoms: _527  and  ZN_792
REMARK  197  A    between atoms: _529  and  _531
REMARK  198  A    between atoms: _531  and  _532
REMARK  199  A    between atoms: _535  and  _537
REMARK  200  A    between atoms: _537  and  _538
REMARK  201  A    between atoms: _540  and  _542
REMARK  202  A    between atoms: _542  and  _543
REMARK  203  A    between atoms: _542  and  _545
REMARK  204  A    between atoms: _545  and  _546
REMARK  205  A    between atoms: _549  and  _551
REMARK  206  A    between atoms: _551  and  _552
REMARK  207  A    between atoms: _551  and  _554
REMARK  208  A    between atoms: _557  and  _559
REMARK  209  A    between atoms: _559  and  _560
REMARK  210  A    between atoms: _563  and  _565
REMARK  211  A    between atoms: _565  and  _566
REMARK  212  A    between atoms: _565  and  _568
REMARK  213  A    between atoms: _568  and  _569
REMARK  214  A    between atoms: _572  and  _574
REMARK  215  A    between atoms: _574  and  _575
REMARK  216  A    between atoms: _574  and  _577
REMARK  217  A    between atoms: _577  and  _578
REMARK  218  A    between atoms: _578  and  _579
REMARK  219  A    between atoms: _582  and  _584
REMARK  220  A    between atoms: _584  and  _585
REMARK  221  A    between atoms: _584  and  _587
REMARK  222  A    between atoms: _587  and  _588
REMARK  223  A    between atoms: _588  and  _589
REMARK  224  A    between atoms: _589  and  _590
REMARK  225  A    between atoms: _590  and  _591
REMARK  226  A    between atoms: _595  and  _597
REMARK  227  A    between atoms: _597  and  _598
REMARK  228  A    between atoms: _597  and  _600
REMARK  229  A    between atoms: _600  and  _601
REMARK  230  A    between atoms: _607  and  _609
REMARK  231  A    between atoms: _609  and  _610
REMARK  232  A    between atoms: _609  and  _612
REMARK  233  A    between atoms: _612  and  _613
REMARK  234  A    between atoms: _619  and  _621
REMARK  235  A    between atoms: _621  and  _622
REMARK  236  A    between atoms: _624  and  _626
REMARK  237  A    between atoms: _626  and  _627
REMARK  238  A    between atoms: _626  and  _629
REMARK  239  A    between atoms: _632  and  _634
REMARK  240  A    between atoms: _634  and  _635
REMARK  241  A    between atoms: _634  and  _637
REMARK  242  A    between atoms: _637  and  _638
REMARK  243  A    between atoms: _638  and  _639
REMARK  244  A    between atoms: _639  and  _640
REMARK  245  A    between atoms: _640  and  _641
REMARK  246  A    between atoms: _645  and  _647
REMARK  247  A    between atoms: _647  and  _648
REMARK  248  A    between atoms: _647  and  _650
REMARK  249  A    between atoms: _650  and  _651
REMARK  250  A    between atoms: _657  and  _659
REMARK  251  A    between atoms: _659  and  _660
REMARK  252  A    between atoms: _659  and  _662
REMARK  253  A    between atoms: _662  and  _663
REMARK  254  A    between atoms: _668  and  _670
REMARK  255  A    between atoms: _670  and  _671
REMARK  256  A    between atoms: _670  and  _673
REMARK  257  A    between atoms: _673  and  _674
REMARK  258  A    between atoms: _679  and  _681
REMARK  259  A    between atoms: _681  and  _682
REMARK  260  A    between atoms: _681  and  _684
REMARK  261  A    between atoms: _687  and  _689
REMARK  262  A    between atoms: _689  and  _690
REMARK  263  A    between atoms: _689  and  _692
REMARK  264  A    between atoms: _692  and  _693
REMARK  265  A    between atoms: _697  and  _698
REMARK  266  A    between atoms: _703  and  _705
REMARK  267  A    between atoms: _705  and  _706
REMARK  268  A    between atoms: _705  and  _708
REMARK  269  A    between atoms: _708  and  _709
REMARK  270  A    between atoms: _714  and  _715
REMARK  271  A    between atoms: _717  and  _719
REMARK  272  A    between atoms: _719  and  _720
REMARK  273  A    between atoms: _719  and  _722
REMARK  274  A    between atoms: _722  and  _723
REMARK  275  A    between atoms: _723  and  _724
REMARK  276  A    between atoms: _724  and  _725
REMARK  277  A    between atoms: _734  and  _736
REMARK  278  A    between atoms: _736  and  _737
REMARK  279  A    between atoms: _736  and  _739
REMARK  280  A    between atoms: _739  and  _740
REMARK  281  A    between atoms: _745  and  _746
REMARK  282  A    between atoms: _748  and  _750
REMARK  283  A    between atoms: _750  and  _751
REMARK  284  A    between atoms: _750  and  _753
REMARK  285  A    between atoms: _753  and  _754
REMARK  286  A    between atoms: _760  and  _762
REMARK  287  A    between atoms: _762  and  _763
REMARK  288  A    between atoms: _762  and  _765
REMARK  289  A    between atoms: _765  and  _766
REMARK  290  A    between atoms: _768  and  _770
REMARK  291  A    between atoms: _770  and  _771
REMARK  292  A    between atoms: _770  and  _773
REMARK  293  A    between atoms: _773  and  _774
REMARK  294  A    between atoms: _780  and  _782
REMARK  295  A    between atoms: _782  and  _783
REMARK  296  A    between atoms: _782  and  _785
REMARK  297  A    between atoms: _785  and  _786
REMARK  298  A    between atoms: _786  and  _787
REMARK                            x       y       z     vdW  Elec       q    Type
REMARK                         _______ _______ _______ _____ _____    ______ ____
ROOT
ATOM      1  CA  ASP A   2       7.874 -24.068 -19.328  0.00  0.00    +0.160 C 
ENDROOT
BRANCH   1   3
ATOM      2  C   GLY A   1       6.651 -25.431 -20.968  0.00  0.00    +0.240 C 
ATOM      3  N   ASP A   2       6.637 -24.625 -19.906  0.00  0.00    -0.297 N 
ATOM      4  H   ASP A   2       5.724 -24.381 -19.471  0.00  0.00    +0.150 HD
ATOM      5  O   GLY A   1       7.675 -25.743 -21.559  0.00  0.00    -0.274 OA
BRANCH   2   6
ATOM      6  CA  GLY A   1       5.302 -25.959 -21.439  0.00  0.00    +0.169 C 
BRANCH   6   7
ATOM      7  N   GLY A   1       4.388 -26.163 -20.313  0.00  0.00    -0.236 NA
ATOM      8  H   GLY A   1       3.586 -25.513 -20.184  0.00  0.00    +0.142 HD
ENDBRANCH   6   7
ENDBRANCH   2   6
ENDBRANCH   1   3
BRANCH   1   9
ATOM      9  C   ASP A   2       8.749 -25.192 -18.761  0.00  0.00    +0.241 C 
ATOM     10  N   VAL A   3       8.120 -26.180 -18.130  0.00  0.00    -0.298 N 
ATOM     11  H   VAL A   3       7.091 -26.114 -17.993  0.00  0.00    +0.150 HD
ATOM     12  O   ASP A   2       9.966 -25.149 -18.880  0.00  0.00    -0.273 OA
BRANCH  10  13
ATOM     13  CA  VAL A   3       8.825 -27.354 -17.624  0.00  0.00    +0.137 C 
BRANCH  13  14
ATOM     14  CB  VAL A   3       7.853 -28.390 -17.011  0.00  0.00    +0.026 C 
ATOM     15  CG2 VAL A   3       7.253 -27.836 -15.727  0.00  0.00    +0.002 C 
ATOM     16  CG1 VAL A   3       8.590 -29.676 -16.694  0.00  0.00    +0.002 C 
ENDBRANCH  13  14
BRANCH  13  17
ATOM     17  C   VAL A   3       9.653 -28.020 -18.739  0.00  0.00    +0.227 C 
ATOM     18  O   VAL A   3      10.825 -28.294 -18.555  0.00  0.00    -0.286 OA
ENDBRANCH  13  17
ENDBRANCH  10  13
ENDBRANCH   1   9
BRANCH   1  19
ATOM     19  CB  ASP A   2       7.552 -23.039 -18.222  0.00  0.00    +0.143 C 
BRANCH  19  20
ATOM     20  CG  ASP A   2       7.048 -21.689 -18.773  0.00  0.00    +0.367 C 
ATOM     21  OD2 ASP A   2       7.217 -20.648 -18.069  0.00  0.00    -0.246 OA
ATOM     22  OD1 ASP A   2       6.465 -21.652 -19.889  0.00  0.00    -0.246 OA
ENDBRANCH  19  20
ENDBRANCH   1  19
TORSDOF 9
REMARK  Name = ../refined-set-2016/4ca6/4ca6_pocket.pdb
REMARK  298 active torsions:
REMARK  status: ('A' for Active; 'I' for Inactive)
REMARK    1  A    between atoms: _1  and  _3
REMARK    2  A    between atoms: _3  and  _4
REMARK    3  A    between atoms: _3  and  _6
REMARK    4  A    between atoms: _6  and  _7
REMARK    5  A    between atoms: _10  and  _12
REMARK    6  A    between atoms: _12  and  _13
REMARK    7  A    between atoms: _12  and  _15
REMARK    8  A    between atoms: _15  and  _16
REMARK    9  A    between atoms: _18  and  _20
REMARK   10  A    between atoms: _20  and  _21
REMARK   11  A    between atoms: _20  and  _23
REMARK   12  A    between atoms: _23  and  _24
REMARK   13  A    between atoms: _29  and  _30
REMARK   14  A    between atoms: _32  and  _34
REMARK   15  A    between atoms: _34  and  _35
REMARK   16  A    between atoms: _34  and  _37
REMARK   17  A    between atoms: _37  and  _38
REMARK   18  A    between atoms: _48  and  _50
REMARK   19  A    between atoms: _50  and  _51
REMARK   20  A    between atoms: _50  and  _53
REMARK   21  A    between atoms: _53  and  _54
REMARK   22  A    between atoms: _57  and  _59
REMARK   23  A    between atoms: _59  and  _60
REMARK   24  A    between atoms: _59  and  _62
REMARK   25  A    between atoms: _62  and  _63
REMARK   26  A    between atoms: _73  and  _75
REMARK   27  A    between atoms: _75  and  _76
REMARK   28  A    between atoms: _75  and  _78
REMARK   29  A    between atoms: _78  and  _79
REMARK   30  A    between atoms: _79  and  _80
REMARK   31  A    between atoms: _85  and  _87
REMARK   32  A    between atoms: _87  and  _88
REMARK   33  A    between atoms: _87  and  _90
REMARK   34  A    between atoms: _90  and  _91
REMARK   35  A    between atoms: _93  and  _95
REMARK   36  A    between atoms: _95  and  _96
REMARK   37  A    between atoms: _95  and  _98
REMARK   38  A    between atoms: _98  and  _99
REMARK   39  A    between atoms: _99  and  _100
REMARK   40  A    between atoms: _103  and  _105
REMARK   41  A    between atoms: _105  and  _106
REMARK   42  A    between atoms: _105  and  _108
REMARK   43  A    between atoms: _111  and  _113
REMARK   44  A    between atoms: _113  and  _114
REMARK   45  A    between atoms: _113  and  _116
REMARK   46  A    between atoms: _118  and  _120
REMARK   47  A    between atoms: _120  and  _121
REMARK   48  A    between atoms: _120  and  _123
REMARK   49  A    between atoms: _123  and  _124
REMARK   50  A    between atoms: _129  and  _131
REMARK   51  A    between atoms: _131  and  _132
REMARK   52  A    between atoms: _135  and  _137
REMARK   53  A    between atoms: _137  and  _138
REMARK   54  A    between atoms: _137  and  _140
REMARK   55  A    between atoms: _140  and  _141
REMARK   56  A    between atoms: _143  and  _145
REMARK   57  A    between atoms: _145  and  _146
REMARK   58  A    between atoms: _149  and  _151
REMARK   59  A    between atoms: _151  and  _152
REMARK   60  A    between atoms: _151  and  _154
REMARK   61  A    between atoms: _154  and  _155
REMARK   62  A    between atoms: _165  and  _167
REMARK   63  A    between atoms: _167  and  _168
REMARK   64  A    between atoms: _167  and  _170
REMARK   65  A    between atoms: _170  and  _171
REMARK   66  A    between atoms: _174  and  _176
REMARK   67  A    between atoms: _176  and  _177
REMARK   68  A    between atoms: _176  and  _179
REMARK   69  A    between atoms: _179  and  _180
REMARK   70  A    between atoms: _185  and  _186
REMARK   71  A    between atoms: _188  and  _190
REMARK   72  A    between atoms: _190  and  _191
REMARK   73  A    between atoms: _190  and  _193
REMARK   74  A    between atoms: _193  and  _194
REMARK   75  A    between atoms: _194  and  _195
REMARK   76  A    between atoms: _195  and  _196
REMARK   77  A    between atoms: _205  and  _207
REMARK   78  A    between atoms: _207  and  _208
REMARK   79  A    between atoms: _207  and  _210
REMARK   80  A    between atoms: _210  and  _211
REMARK   81  A    between atoms: _214  and  _216
REMARK   82  A    between atoms: _216  and  _217
REMARK   83  A    between atoms: _216  and  _219
REMARK   84  A    between atoms: _219  and  _220
REMARK   85  A    between atoms: _220  and  _221
REMARK   86  A    between atoms: _221  and  _222
REMARK   87  A    between atoms: _222  and  _223
REMARK   88  A    between atoms: _227  and  _229
REMARK   89  A    between atoms: _229  and  _230
REMARK   90  A    between atoms: _229  and  _232
REMARK   91  A    between atoms: _232  and  _233
REMARK   92  A    between atoms: _233  and  _234
REMARK   93  A    between atoms: _239  and  _241
REMARK   94  A    between atoms: _241  and  _242
REMARK   95  A    between atoms: _241  and  _244
REMARK   96  A    between atoms: _244  and  _245
REMARK   97  A    between atoms: _245  and  _246
REMARK   98  A    between atoms: _246  and  _247
REMARK   99  A    between atoms: _256  and  _258
REMARK  100  A    between atoms: _258  and  _259
REMARK  101  A    between atoms: _258  and  _261
REMARK  102  A    between atoms: _261  and  _262
REMARK  103  A    between atoms: _262  and  _263
REMARK  104  A    between atoms: _265  and  _267
REMARK  105  A    between atoms: _267  and  _268
REMARK  106  A    between atoms: _267  and  _270
REMARK  107  A    between atoms: _270  and  _271
REMARK  108  A    between atoms: _274  and  _276
REMARK  109  A    between atoms: _276  and  _277
REMARK  110  A    between atoms: _276  and  _279
REMARK  111  A    between atoms: _279  and  _280
REMARK  112  A    between atoms: _280  and  _281
REMARK  113  A    between atoms: _286  and  _288
REMARK  114  A    between atoms: _288  and  _289
REMARK  115  A    between atoms: _288  and  _291
REMARK  116  A    between atoms: _291  and  _292
REMARK  117  A    between atoms: _295  and  _297
REMARK  118  A    between atoms: _297  and  _298
REMARK  119  A    between atoms: _297  and  _300
REMARK  120  A    between atoms: _300  and  _301
REMARK  121  A    between atoms: _303  and  _305
REMARK  122  A    between atoms: _305  and  _306
REMARK  123  A    between atoms: _305  and  _308
REMARK  124  A    between atoms: _308  and  _309
REMARK  125  A    between atoms: _312  and  _314
REMARK  126  A    between atoms: _314  and  _315
REMARK  127  A    between atoms: _314  and  _317
REMARK  128  A    between atoms: _320  and  _322
REMARK  129  A    between atoms: _322  and  _323
REMARK  130  A    between atoms: _322  and  _325
REMARK  131  A    between atoms: _325  and  _326
REMARK  132  A    between atoms: _331  and  _333
REMARK  133  A    between atoms: _344  and  _347
REMARK  134  A    between atoms: _347  and  _348
REMARK  135  A    between atoms: _348  and  _349
REMARK  136  A    between atoms: _354  and  _357
REMARK  137  A    between atoms: _357  and  _358
REMARK  138  A    between atoms: _358  and  _359
REMARK  139  A    between atoms: _368  and  _369
REMARK  140  A    between atoms: _377  and  _379
REMARK  141  A    between atoms: _379  and  _380
REMARK  142  A    between atoms: _379  and  _382
REMARK  143  A    between atoms: _382  and  _383
REMARK  144  A    between atoms: _386  and  _388
REMARK  145  A    between atoms: _388  and  _389
REMARK  146  A    between atoms: _388  and  _391
REMARK  147  A    between atoms: _391  and  _392
REMARK  148  A    between atoms: _397  and  _398
REMARK  149  A    between atoms: _400  and  _402
REMARK  150  A    between atoms: _402  and  _403
REMARK  151  A    between atoms: _402  and  _405
REMARK  152  A    between atoms: _405  and  _406
REMARK  153  A    between atoms: _411  and  _412
REMARK  154  A    between atoms: _414  and  _416
REMARK  155  A    between atoms: _416  and  _417
REMARK  156  A    between atoms: _416  and  _419
REMARK  157  A    between atoms: _419  and  _420
REMARK  158  A    between atoms: _425  and  _426
REMARK  159  A    between atoms: _428  and  _430
REMARK  160  A    between atoms: _430  and  _431
REMARK  161  A    between atoms: _430  and  _433
REMARK  162  A    between atoms: _433  and  _434
REMARK  163  A    between atoms: _434  and  _435
REMARK  164  A    between atoms: _435  and  _436
REMARK  165  A    between atoms: _445  and  _447
REMARK  166  A    between atoms: _447  and  _448
REMARK  167  A    between atoms: _447  and  _450
REMARK  168  A    between atoms: _450  and  _451
REMARK  169  A    between atoms: _451  and  _452
REMARK  170  A    between atoms: _452  and  _453
REMARK  171  A    between atoms: _462  and  _464
REMARK  172  A    between atoms: _464  and  _465
REMARK  173  A    between atoms: _467  and  _469
REMARK  174  A    between atoms: _469  and  _470
REMARK  175  A    between atoms: _473  and  _475
REMARK  176  A    between atoms: _475  and  _476
REMARK  177  A    between atoms: _475  and  _478
REMARK  178  A    between atoms: _478  and  _479
REMARK  179  A    between atoms: _485  and  _486
REMARK  180  A    between atoms: _491  and  _493
REMARK  181  A    between atoms: _493  and  _494
REMARK  182  A    between atoms: _496  and  _498
REMARK  183  A    between atoms: _498  and  _499
REMARK  184  A    between atoms: _498  and  _501
REMARK  185  A    between atoms: _501  and  _502
REMARK  186  A    between atoms: _508  and  _510
REMARK  187  A    between atoms: _510  and  _511
REMARK  188  A    between atoms: _510  and  _513
REMARK  189  A    between atoms: _513  and  _514
REMARK  190  A    between atoms: _519  and  _521
REMARK  191  A    between atoms: _521  and  _522
REMARK  192  A    between atoms: _521  and  _524
REMARK  193  A    between atoms: _524  and  _525
REMARK  194  A    between atoms: _525  and  _526
REMARK  195  A    between atoms: _526  and  _527
REMARK  196  A    between atoms: _527  and  ZN_792
REMARK  197  A    between atoms: _529  and  _531
REMARK  198  A    between atoms: _531  and  _532
REMARK  199  A    between atoms: _535  and  _537
REMARK  200  A    between atoms: _537  and  _538
REMARK  201  A    between atoms: _540  and  _542
REMARK  202  A    between atoms: _542  and  _543
REMARK  203  A    between atoms: _542  and  _545
REMARK  204  A    between atoms: _545  and  _546
REMARK  205  A    between atoms: _549  and  _551
REMARK  206  A    between atoms: _551  and  _552
REMARK  207  A    between atoms: _551  and  _554
REMARK  208  A    between atoms: _557  and  _559
REMARK  209  A    between atoms: _559  and  _560
REMARK  210  A    between atoms: _563  and  _565
REMARK  211  A    between atoms: _565  and  _566
REMARK  212  A    between atoms: _565  and  _568
REMARK  213  A    between atoms: _568  and  _569
REMARK  214  A    between atoms: _572  and  _574
REMARK  215  A    between atoms: _574  and  _575
REMARK  216  A    between atoms: _574  and  _577
REMARK  217  A    between atoms: _577  and  _578
REMARK  218  A    between atoms: _578  and  _579
REMARK  219  A    between atoms: _582  and  _584
REMARK  220  A    between atoms: _584  and  _585
REMARK  221  A    between atoms: _584  and  _587
REMARK  222  A    between atoms: _587  and  _588
REMARK  223  A    between atoms: _588  and  _589
REMARK  224  A    between atoms: _589  and  _590
REMARK  225  A    between atoms: _590  and  _591
REMARK  226  A    between atoms: _595  and  _597
REMARK  227  A    between atoms: _597  and  _598
REMARK  228  A    between atoms: _597  and  _600
REMARK  229  A    between atoms: _600  and  _601
REMARK  230  A    between atoms: _607  and  _609
REMARK  231  A    between atoms: _609  and  _610
REMARK  232  A    between atoms: _609  and  _612
REMARK  233  A    between atoms: _612  and  _613
REMARK  234  A    between atoms: _619  and  _621
REMARK  235  A    between atoms: _621  and  _622
REMARK  236  A    between atoms: _624  and  _626
REMARK  237  A    between atoms: _626  and  _627
REMARK  238  A    between atoms: _626  and  _629
REMARK  239  A    between atoms: _632  and  _634
REMARK  240  A    between atoms: _634  and  _635
REMARK  241  A    between atoms: _634  and  _637
REMARK  242  A    between atoms: _637  and  _638
REMARK  243  A    between atoms: _638  and  _639
REMARK  244  A    between atoms: _639  and  _640
REMARK  245  A    between atoms: _640  and  _641
REMARK  246  A    between atoms: _645  and  _647
REMARK  247  A    between atoms: _647  and  _648
REMARK  248  A    between atoms: _647  and  _650
REMARK  249  A    between atoms: _650  and  _651
REMARK  250  A    between atoms: _657  and  _659
REMARK  251  A    between atoms: _659  and  _660
REMARK  252  A    between atoms: _659  and  _662
REMARK  253  A    between atoms: _662  and  _663
REMARK  254  A    between atoms: _668  and  _670
REMARK  255  A    between atoms: _670  and  _671
REMARK  256  A    between atoms: _670  and  _673
REMARK  257  A    between atoms: _673  and  _674
REMARK  258  A    between atoms: _679  and  _681
REMARK  259  A    between atoms: _681  and  _682
REMARK  260  A    between atoms: _681  and  _684
REMARK  261  A    between atoms: _687  and  _689
REMARK  262  A    between atoms: _689  and  _690
REMARK  263  A    between atoms: _689  and  _692
REMARK  264  A    between atoms: _692  and  _693
REMARK  265  A    between atoms: _697  and  _698
REMARK  266  A    between atoms: _703  and  _705
REMARK  267  A    between atoms: _705  and  _706
REMARK  268  A    between atoms: _705  and  _708
REMARK  269  A    between atoms: _708  and  _709
REMARK  270  A    between atoms: _714  and  _715
REMARK  271  A    between atoms: _717  and  _719
REMARK  272  A    between atoms: _719  and  _720
REMARK  273  A    between atoms: _719  and  _722
REMARK  274  A    between atoms: _722  and  _723
REMARK  275  A    between atoms: _723  and  _724
REMARK  276  A    between atoms: _724  and  _725
REMARK  277  A    between atoms: _734  and  _736
REMARK  278  A    between atoms: _736  and  _737
REMARK  279  A    between atoms: _736  and  _739
REMARK  280  A    between atoms: _739  and  _740
REMARK  281  A    between atoms: _745  and  _746
REMARK  282  A    between atoms: _748  and  _750
REMARK  283  A    between atoms: _750  and  _751
REMARK  284  A    between atoms: _750  and  _753
REMARK  285  A    between atoms: _753  and  _754
REMARK  286  A    between atoms: _760  and  _762
REMARK  287  A    between atoms: _762  and  _763
REMARK  288  A    between atoms: _762  and  _765
REMARK  289  A    between atoms: _765  and  _766
REMARK  290  A    between atoms: _768  and  _770
REMARK  291  A    between atoms: _770  and  _771
REMARK  292  A    between atoms: _770  and  _773
REMARK  293  A    between atoms: _773  and  _774
REMARK  294  A    between atoms: _780  and  _782
REMARK  295  A    between atoms: _782  and  _783
REMARK  296  A    between atoms: _782  and  _785
REMARK  297  A    between atoms: _785  and  _786
REMARK  298  A    between atoms: _786  and  _787
REMARK                            x       y       z     vdW  Elec       q    Type
REMARK                         _______ _______ _______ _____ _____    ______ ____
ROOT
ATOM      1  C   ALA A   1      12.783 -25.594 -21.214  0.00  0.00    +0.238 C 
ATOM      2  N   LEU A   2      12.642 -25.909 -19.925  0.00  0.00    -0.298 N 
ATOM      3  H   LEU A   2      11.695 -26.105 -19.543  0.00  0.00    +0.150 HD
ATOM      4  O   ALA A   1      13.866 -25.278 -21.712  0.00  0.00    -0.274 OA
ENDROOT
BRANCH   1   5
ATOM      5  CA  ALA A   1      11.529 -25.666 -22.088  0.00  0.00    +0.145 C 
ATOM      6  CB  ALA A   1      10.888 -24.293 -22.221  0.00  0.00    +0.028 C 
BRANCH   5   7
ATOM      7  N   ALA A   1      10.573 -26.652 -21.564  0.00  0.00    -0.238 NA
ATOM      8  H   ALA A   1       9.645 -26.330 -21.223  0.00  0.00    +0.142 HD
ENDBRANCH   5   7
ENDBRANCH   1   5
BRANCH   2   9
ATOM      9  CA  LEU A   2      13.813 -25.982 -19.041  0.00  0.00    +0.137 C 
BRANCH   9  10
ATOM     10  C   LEU A   2      14.802 -27.076 -19.487  0.00  0.00    +0.227 C 
ATOM     11  O   LEU A   2      16.015 -26.851 -19.506  0.00  0.00    -0.286 OA
ENDBRANCH   9  10
BRANCH   9  12
ATOM     12  CB  LEU A   2      13.406 -26.174 -17.574  0.00  0.00    +0.028 C 
BRANCH  12  13
ATOM     13  CG  LEU A   2      12.723 -25.021 -16.830  0.00  0.00    +0.002 C 
ATOM     14  CD2 LEU A   2      12.209 -25.519 -15.478  0.00  0.00    +0.000 C 
ATOM     15  CD1 LEU A   2      13.650 -23.823 -16.648  0.00  0.00    +0.000 C 
ENDBRANCH  12  13
ENDBRANCH   9  12
ENDBRANCH   2   9
TORSDOF 6
REMARK  Name = ../refined-set-2016/4ca6/4ca6_pocket.pdb
REMARK  298 active torsions:
REMARK  status: ('A' for Active; 'I' for Inactive)
REMARK    1  A    between atoms: _1  and  _3
REMARK    2  A    between atoms: _3  and  _4
REMARK    3  A    between atoms: _3  and  _6
REMARK    4  A    between atoms: _6  and  _7
REMARK    5  A    between atoms: _10  and  _12
REMARK    6  A    between atoms: _12  and  _13
REMARK    7  A    between atoms: _12  and  _15
REMARK    8  A    between atoms: _15  and  _16
REMARK    9  A    between atoms: _18  and  _20
REMARK   10  A    between atoms: _20  and  _21
REMARK   11  A    between atoms: _20  and  _23
REMARK   12  A    between atoms: _23  and  _24
REMARK   13  A    between atoms: _29  and  _30
REMARK   14  A    between atoms: _32  and  _34
REMARK   15  A    between atoms: _34  and  _35
REMARK   16  A    between atoms: _34  and  _37
REMARK   17  A    between atoms: _37  and  _38
REMARK   18  A    between atoms: _48  and  _50
REMARK   19  A    between atoms: _50  and  _51
REMARK   20  A    between atoms: _50  and  _53
REMARK   21  A    between atoms: _53  and  _54
REMARK   22  A    between atoms: _57  and  _59
REMARK   23  A    between atoms: _59  and  _60
REMARK   24  A    between atoms: _59  and  _62
REMARK   25  A    between atoms: _62  and  _63
REMARK   26  A    between atoms: _73  and  _75
REMARK   27  A    between atoms: _75  and  _76
REMARK   28  A    between atoms: _75  and  _78
REMARK   29  A    between atoms: _78  and  _79
REMARK   30  A    between atoms: _79  and  _80
REMARK   31  A    between atoms: _85  and  _87
REMARK   32  A    between atoms: _87  and  _88
REMARK   33  A    between atoms: _87  and  _90
REMARK   34  A    between atoms: _90  and  _91
REMARK   35  A    between atoms: _93  and  _95
REMARK   36  A    between atoms: _95  and  _96
REMARK   37  A    between atoms: _95  and  _98
REMARK   38  A    between atoms: _98  and  _99
REMARK   39  A    between atoms: _99  and  _100
REMARK   40  A    between atoms: _103  and  _105
REMARK   41  A    between atoms: _105  and  _106
REMARK   42  A    between atoms: _105  and  _108
REMARK   43  A    between atoms: _111  and  _113
REMARK   44  A    between atoms: _113  and  _114
REMARK   45  A    between atoms: _113  and  _116
REMARK   46  A    between atoms: _118  and  _120
REMARK   47  A    between atoms: _120  and  _121
REMARK   48  A    between atoms: _120  and  _123
REMARK   49  A    between atoms: _123  and  _124
REMARK   50  A    between atoms: _129  and  _131
REMARK   51  A    between atoms: _131  and  _132
REMARK   52  A    between atoms: _135  and  _137
REMARK   53  A    between atoms: _137  and  _138
REMARK   54  A    between atoms: _137  and  _140
REMARK   55  A    between atoms: _140  and  _141
REMARK   56  A    between atoms: _143  and  _145
REMARK   57  A    between atoms: _145  and  _146
REMARK   58  A    between atoms: _149  and  _151
REMARK   59  A    between atoms: _151  and  _152
REMARK   60  A    between atoms: _151  and  _154
REMARK   61  A    between atoms: _154  and  _155
REMARK   62  A    between atoms: _165  and  _167
REMARK   63  A    between atoms: _167  and  _168
REMARK   64  A    between atoms: _167  and  _170
REMARK   65  A    between atoms: _170  and  _171
REMARK   66  A    between atoms: _174  and  _176
REMARK   67  A    between atoms: _176  and  _177
REMARK   68  A    between atoms: _176  and  _179
REMARK   69  A    between atoms: _179  and  _180
REMARK   70  A    between atoms: _185  and  _186
REMARK   71  A    between atoms: _188  and  _190
REMARK   72  A    between atoms: _190  and  _191
REMARK   73  A    between atoms: _190  and  _193
REMARK   74  A    between atoms: _193  and  _194
REMARK   75  A    between atoms: _194  and  _195
REMARK   76  A    between atoms: _195  and  _196
REMARK   77  A    between atoms: _205  and  _207
REMARK   78  A    between atoms: _207  and  _208
REMARK   79  A    between atoms: _207  and  _210
REMARK   80  A    between atoms: _210  and  _211
REMARK   81  A    between atoms: _214  and  _216
REMARK   82  A    between atoms: _216  and  _217
REMARK   83  A    between atoms: _216  and  _219
REMARK   84  A    between atoms: _219  and  _220
REMARK   85  A    between atoms: _220  and  _221
REMARK   86  A    between atoms: _221  and  _222
REMARK   87  A    between atoms: _222  and  _223
REMARK   88  A    between atoms: _227  and  _229
REMARK   89  A    between atoms: _229  and  _230
REMARK   90  A    between atoms: _229  and  _232
REMARK   91  A    between atoms: _232  and  _233
REMARK   92  A    between atoms: _233  and  _234
REMARK   93  A    between atoms: _239  and  _241
REMARK   94  A    between atoms: _241  and  _242
REMARK   95  A    between atoms: _241  and  _244
REMARK   96  A    between atoms: _244  and  _245
REMARK   97  A    between atoms: _245  and  _246
REMARK   98  A    between atoms: _246  and  _247
REMARK   99  A    between atoms: _256  and  _258
REMARK  100  A    between atoms: _258  and  _259
REMARK  101  A    between atoms: _258  and  _261
REMARK  102  A    between atoms: _261  and  _262
REMARK  103  A    between atoms: _262  and  _263
REMARK  104  A    between atoms: _265  and  _267
REMARK  105  A    between atoms: _267  and  _268
REMARK  106  A    between atoms: _267  and  _270
REMARK  107  A    between atoms: _270  and  _271
REMARK  108  A    between atoms: _274  and  _276
REMARK  109  A    between atoms: _276  and  _277
REMARK  110  A    between atoms: _276  and  _279
REMARK  111  A    between atoms: _279  and  _280
REMARK  112  A    between atoms: _280  and  _281
REMARK  113  A    between atoms: _286  and  _288
REMARK  114  A    between atoms: _288  and  _289
REMARK  115  A    between atoms: _288  and  _291
REMARK  116  A    between atoms: _291  and  _292
REMARK  117  A    between atoms: _295  and  _297
REMARK  118  A    between atoms: _297  and  _298
REMARK  119  A    between atoms: _297  and  _300
REMARK  120  A    between atoms: _300  and  _301
REMARK  121  A    between atoms: _303  and  _305
REMARK  122  A    between atoms: _305  and  _306
REMARK  123  A    between atoms: _305  and  _308
REMARK  124  A    between atoms: _308  and  _309
REMARK  125  A    between atoms: _312  and  _314
REMARK  126  A    between atoms: _314  and  _315
REMARK  127  A    between atoms: _314  and  _317
REMARK  128  A    between atoms: _320  and  _322
REMARK  129  A    between atoms: _322  and  _323
REMARK  130  A    between atoms: _322  and  _325
REMARK  131  A    between atoms: _325  and  _326
REMARK  132  A    between atoms: _331  and  _333
REMARK  133  A    between atoms: _344  and  _347
REMARK  134  A    between atoms: _347  and  _348
REMARK  135  A    between atoms: _348  and  _349
REMARK  136  A    between atoms: _354  and  _357
REMARK  137  A    between atoms: _357  and  _358
REMARK  138  A    between atoms: _358  and  _359
REMARK  139  A    between atoms: _368  and  _369
REMARK  140  A    between atoms: _377  and  _379
REMARK  141  A    between atoms: _379  and  _380
REMARK  142  A    between atoms: _379  and  _382
REMARK  143  A    between atoms: _382  and  _383
REMARK  144  A    between atoms: _386  and  _388
REMARK  145  A    between atoms: _388  and  _389
REMARK  146  A    between atoms: _388  and  _391
REMARK  147  A    between atoms: _391  and  _392
REMARK  148  A    between atoms: _397  and  _398
REMARK  149  A    between atoms: _400  and  _402
REMARK  150  A    between atoms: _402  and  _403
REMARK  151  A    between atoms: _402  and  _405
REMARK  152  A    between atoms: _405  and  _406
REMARK  153  A    between atoms: _411  and  _412
REMARK  154  A    between atoms: _414  and  _416
REMARK  155  A    between atoms: _416  and  _417
REMARK  156  A    between atoms: _416  and  _419
REMARK  157  A    between atoms: _419  and  _420
REMARK  158  A    between atoms: _425  and  _426
REMARK  159  A    between atoms: _428  and  _430
REMARK  160  A    between atoms: _430  and  _431
REMARK  161  A    between atoms: _430  and  _433
REMARK  162  A    between atoms: _433  and  _434
REMARK  163  A    between atoms: _434  and  _435
REMARK  164  A    between atoms: _435  and  _436
REMARK  165  A    between atoms: _445  and  _447
REMARK  166  A    between atoms: _447  and  _448
REMARK  167  A    between atoms: _447  and  _450
REMARK  168  A    between atoms: _450  and  _451
REMARK  169  A    between atoms: _451  and  _452
REMARK  170  A    between atoms: _452  and  _453
REMARK  171  A    between atoms: _462  and  _464
REMARK  172  A    between atoms: _464  and  _465
REMARK  173  A    between atoms: _467  and  _469
REMARK  174  A    between atoms: _469  and  _470
REMARK  175  A    between atoms: _473  and  _475
REMARK  176  A    between atoms: _475  and  _476
REMARK  177  A    between atoms: _475  and  _478
REMARK  178  A    between atoms: _478  and  _479
REMARK  179  A    between atoms: _485  and  _486
REMARK  180  A    between atoms: _491  and  _493
REMARK  181  A    between atoms: _493  and  _494
REMARK  182  A    between atoms: _496  and  _498
REMARK  183  A    between atoms: _498  and  _499
REMARK  184  A    between atoms: _498  and  _501
REMARK  185  A    between atoms: _501  and  _502
REMARK  186  A    between atoms: _508  and  _510
REMARK  187  A    between atoms: _510  and  _511
REMARK  188  A    between atoms: _510  and  _513
REMARK  189  A    between atoms: _513  and  _514
REMARK  190  A    between atoms: _519  and  _521
REMARK  191  A    between atoms: _521  and  _522
REMARK  192  A    between atoms: _521  and  _524
REMARK  193  A    between atoms: _524  and  _525
REMARK  194  A    between atoms: _525  and  _526
REMARK  195  A    between atoms: _526  and  _527
REMARK  196  A    between atoms: _527  and  ZN_792
REMARK  197  A    between atoms: _529  and  _531
REMARK  198  A    between atoms: _531  and  _532
REMARK  199  A    between atoms: _535  and  _537
REMARK  200  A    between atoms: _537  and  _538
REMARK  201  A    between atoms: _540  and  _542
REMARK  202  A    between atoms: _542  and  _543
REMARK  203  A    between atoms: _542  and  _545
REMARK  204  A    between atoms: _545  and  _546
REMARK  205  A    between atoms: _549  and  _551
REMARK  206  A    between atoms: _551  and  _552
REMARK  207  A    between atoms: _551  and  _554
REMARK  208  A    between atoms: _557  and  _559
REMARK  209  A    between atoms: _559  and  _560
REMARK  210  A    between atoms: _563  and  _565
REMARK  211  A    between atoms: _565  and  _566
REMARK  212  A    between atoms: _565  and  _568
REMARK  213  A    between atoms: _568  and  _569
REMARK  214  A    between atoms: _572  and  _574
REMARK  215  A    between atoms: _574  and  _575
REMARK  216  A    between atoms: _574  and  _577
REMARK  217  A    between atoms: _577  and  _578
REMARK  218  A    between atoms: _578  and  _579
REMARK  219  A    between atoms: _582  and  _584
REMARK  220  A    between atoms: _584  and  _585
REMARK  221  A    between atoms: _584  and  _587
REMARK  222  A    between atoms: _587  and  _588
REMARK  223  A    between atoms: _588  and  _589
REMARK  224  A    between atoms: _589  and  _590
REMARK  225  A    between atoms: _590  and  _591
REMARK  226  A    between atoms: _595  and  _597
REMARK  227  A    between atoms: _597  and  _598
REMARK  228  A    between atoms: _597  and  _600
REMARK  229  A    between atoms: _600  and  _601
REMARK  230  A    between atoms: _607  and  _609
REMARK  231  A    between atoms: _609  and  _610
REMARK  232  A    between atoms: _609  and  _612
REMARK  233  A    between atoms: _612  and  _613
REMARK  234  A    between atoms: _619  and  _621
REMARK  235  A    between atoms: _621  and  _622
REMARK  236  A    between atoms: _624  and  _626
REMARK  237  A    between atoms: _626  and  _627
REMARK  238  A    between atoms: _626  and  _629
REMARK  239  A    between atoms: _632  and  _634
REMARK  240  A    between atoms: _634  and  _635
REMARK  241  A    between atoms: _634  and  _637
REMARK  242  A    between atoms: _637  and  _638
REMARK  243  A    between atoms: _638  and  _639
REMARK  244  A    between atoms: _639  and  _640
REMARK  245  A    between atoms: _640  and  _641
REMARK  246  A    between atoms: _645  and  _647
REMARK  247  A    between atoms: _647  and  _648
REMARK  248  A    between atoms: _647  and  _650
REMARK  249  A    between atoms: _650  and  _651
REMARK  250  A    between atoms: _657  and  _659
REMARK  251  A    between atoms: _659  and  _660
REMARK  252  A    between atoms: _659  and  _662
REMARK  253  A    between atoms: _662  and  _663
REMARK  254  A    between atoms: _668  and  _670
REMARK  255  A    between atoms: _670  and  _671
REMARK  256  A    between atoms: _670  and  _673
REMARK  257  A    between atoms: _673  and  _674
REMARK  258  A    between atoms: _679  and  _681
REMARK  259  A    between atoms: _681  and  _682
REMARK  260  A    between atoms: _681  and  _684
REMARK  261  A    between atoms: _687  and  _689
REMARK  262  A    between atoms: _689  and  _690
REMARK  263  A    between atoms: _689  and  _692
REMARK  264  A    between atoms: _692  and  _693
REMARK  265  A    between atoms: _697  and  _698
REMARK  266  A    between atoms: _703  and  _705
REMARK  267  A    between atoms: _705  and  _706
REMARK  268  A    between atoms: _705  and  _708
REMARK  269  A    between atoms: _708  and  _709
REMARK  270  A    between atoms: _714  and  _715
REMARK  271  A    between atoms: _717  and  _719
REMARK  272  A    between atoms: _719  and  _720
REMARK  273  A    between atoms: _719  and  _722
REMARK  274  A    between atoms: _722  and  _723
REMARK  275  A    between atoms: _723  and  _724
REMARK  276  A    between atoms: _724  and  _725
REMARK  277  A    between atoms: _734  and  _736
REMARK  278  A    between atoms: _736  and  _737
REMARK  279  A    between atoms: _736  and  _739
REMARK  280  A    between atoms: _739  and  _740
REMARK  281  A    between atoms: _745  and  _746
REMARK  282  A    between atoms: _748  and  _750
REMARK  283  A    between atoms: _750  and  _751
REMARK  284  A    between atoms: _750  and  _753
REMARK  285  A    between atoms: _753  and  _754
REMARK  286  A    between atoms: _760  and  _762
REMARK  287  A    between atoms: _762  and  _763
REMARK  288  A    between atoms: _762  and  _765
REMARK  289  A    between atoms: _765  and  _766
REMARK  290  A    between atoms: _768  and  _770
REMARK  291  A    between atoms: _770  and  _771
REMARK  292  A    between atoms: _770  and  _773
REMARK  293  A    between atoms: _773  and  _774
REMARK  294  A    between atoms: _780  and  _782
REMARK  295  A    between atoms: _782  and  _783
REMARK  296  A    between atoms: _782  and  _785
REMARK  297  A    between atoms: _785  and  _786
REMARK  298  A    between atoms: _786  and  _787
REMARK                            x       y       z     vdW  Elec       q    Type
REMARK                         _______ _______ _______ _____ _____    ______ ____
ROOT
ATOM      1  C   GLU A   1      13.634 -15.446 -16.677  0.00  0.00    +0.238 C 
ATOM      2  N   LYS A   2      14.091 -16.141 -15.647  0.00  0.00    -0.298 N 
ATOM      3  H   LYS A   2      15.111 -16.329 -15.570  0.00  0.00    +0.150 HD
ATOM      4  O   GLU A   1      12.489 -15.033 -16.720  0.00  0.00    -0.274 OA
ENDROOT
BRANCH   1   5
ATOM      5  CA  GLU A   1      14.614 -15.173 -17.830  0.00  0.00    +0.145 C 
BRANCH   5   6
ATOM      6  N   GLU A   1      15.909 -14.765 -17.340  0.00  0.00    -0.238 NA
ATOM      7  H   GLU A   1      16.643 -15.490 -17.209  0.00  0.00    +0.142 HD
ENDBRANCH   5   6
BRANCH   5   8
ATOM      8  CB  GLU A   1      14.797 -16.427 -18.711  0.00  0.00    +0.038 C 
BRANCH   8   9
ATOM      9  CG  GLU A   1      13.514 -16.936 -19.345  0.00  0.00    +0.116 C 
BRANCH   9  10
ATOM     10  CD  GLU A   1      13.707 -18.190 -20.183  0.00  0.00    +0.365 C 
ATOM     11  OE2 GLU A   1      14.879 -18.521 -20.505  0.00  0.00    -0.246 OA
ATOM     12  OE1 GLU A   1      12.682 -18.838 -20.526  0.00  0.00    -0.246 OA
ENDBRANCH   9  10
ENDBRANCH   8   9
ENDBRANCH   5   8
ENDBRANCH   1   5
BRANCH   2  13
ATOM     13  CA  LYS A   2      13.194 -16.646 -14.623  0.00  0.00    +0.137 C 
BRANCH  13  14
ATOM     14  C   LYS A   2      13.162 -15.796 -13.349  0.00  0.00    +0.227 C 
ATOM     15  O   LYS A   2      12.069 -15.501 -12.844  0.00  0.00    -0.286 OA
ENDBRANCH  13  14
BRANCH  13  16
ATOM     16  CB  LYS A   2      13.530 -18.101 -14.280  0.00  0.00    +0.028 C 
BRANCH  16  17
ATOM     17  CG  LYS A   2      13.501 -19.071 -15.460  0.00  0.00    -0.000 C 
BRANCH  17  18
ATOM     18  CD  LYS A   2      12.082 -19.329 -15.933  0.00  0.00    -0.024 C 
BRANCH  18  19
ATOM     19  CE  LYS A   2      12.060 -20.401 -17.012  0.00  0.00    -0.086 C 
BRANCH  19  20
ATOM     20  NZ  LYS A   2      10.745 -20.467 -17.690  0.00  0.00    +0.380 N 
ATOM     21  HZ1 LYS A   2      10.007 -20.689 -16.992  0.00  0.00    -0.089 HD
ATOM     22  HZ2 LYS A   2      10.539 -19.550 -18.134  0.00  0.00    -0.089 HD
ATOM     23  HZ3 LYS A   2      10.769 -21.209 -18.419  0.00  0.00    -0.089 HD
ENDBRANCH  19  20
ENDBRANCH  18  19
ENDBRANCH  17  18
ENDBRANCH  16  17
ENDBRANCH  13  16
ENDBRANCH   2  13
TORSDOF 12
REMARK  Name = ../refined-set-2016/4ca6/4ca6_pocket.pdb
REMARK  298 active torsions:
REMARK  status: ('A' for Active; 'I' for Inactive)
REMARK    1  A    between atoms: _1  and  _3
REMARK    2  A    between atoms: _3  and  _4
REMARK    3  A    between atoms: _3  and  _6
REMARK    4  A    between atoms: _6  and  _7
REMARK    5  A    between atoms: _10  and  _12
REMARK    6  A    between atoms: _12  and  _13
REMARK    7  A    between atoms: _12  and  _15
REMARK    8  A    between atoms: _15  and  _16
REMARK    9  A    between atoms: _18  and  _20
REMARK   10  A    between atoms: _20  and  _21
REMARK   11  A    between atoms: _20  and  _23
REMARK   12  A    between atoms: _23  and  _24
REMARK   13  A    between atoms: _29  and  _30
REMARK   14  A    between atoms: _32  and  _34
REMARK   15  A    between atoms: _34  and  _35
REMARK   16  A    between atoms: _34  and  _37
REMARK   17  A    between atoms: _37  and  _38
REMARK   18  A    between atoms: _48  and  _50
REMARK   19  A    between atoms: _50  and  _51
REMARK   20  A    between atoms: _50  and  _53
REMARK   21  A    between atoms: _53  and  _54
REMARK   22  A    between atoms: _57  and  _59
REMARK   23  A    between atoms: _59  and  _60
REMARK   24  A    between atoms: _59  and  _62
REMARK   25  A    between atoms: _62  and  _63
REMARK   26  A    between atoms: _73  and  _75
REMARK   27  A    between atoms: _75  and  _76
REMARK   28  A    between atoms: _75  and  _78
REMARK   29  A    between atoms: _78  and  _79
REMARK   30  A    between atoms: _79  and  _80
REMARK   31  A    between atoms: _85  and  _87
REMARK   32  A    between atoms: _87  and  _88
REMARK   33  A    between atoms: _87  and  _90
REMARK   34  A    between atoms: _90  and  _91
REMARK   35  A    between atoms: _93  and  _95
REMARK   36  A    between atoms: _95  and  _96
REMARK   37  A    between atoms: _95  and  _98
REMARK   38  A    between atoms: _98  and  _99
REMARK   39  A    between atoms: _99  and  _100
REMARK   40  A    between atoms: _103  and  _105
REMARK   41  A    between atoms: _105  and  _106
REMARK   42  A    between atoms: _105  and  _108
REMARK   43  A    between atoms: _111  and  _113
REMARK   44  A    between atoms: _113  and  _114
REMARK   45  A    between atoms: _113  and  _116
REMARK   46  A    between atoms: _118  and  _120
REMARK   47  A    between atoms: _120  and  _121
REMARK   48  A    between atoms: _120  and  _123
REMARK   49  A    between atoms: _123  and  _124
REMARK   50  A    between atoms: _129  and  _131
REMARK   51  A    between atoms: _131  and  _132
REMARK   52  A    between atoms: _135  and  _137
REMARK   53  A    between atoms: _137  and  _138
REMARK   54  A    between atoms: _137  and  _140
REMARK   55  A    between atoms: _140  and  _141
REMARK   56  A    between atoms: _143  and  _145
REMARK   57  A    between atoms: _145  and  _146
REMARK   58  A    between atoms: _149  and  _151
REMARK   59  A    between atoms: _151  and  _152
REMARK   60  A    between atoms: _151  and  _154
REMARK   61  A    between atoms: _154  and  _155
REMARK   62  A    between atoms: _165  and  _167
REMARK   63  A    between atoms: _167  and  _168
REMARK   64  A    between atoms: _167  and  _170
REMARK   65  A    between atoms: _170  and  _171
REMARK   66  A    between atoms: _174  and  _176
REMARK   67  A    between atoms: _176  and  _177
REMARK   68  A    between atoms: _176  and  _179
REMARK   69  A    between atoms: _179  and  _180
REMARK   70  A    between atoms: _185  and  _186
REMARK   71  A    between atoms: _188  and  _190
REMARK   72  A    between atoms: _190  and  _191
REMARK   73  A    between atoms: _190  and  _193
REMARK   74  A    between atoms: _193  and  _194
REMARK   75  A    between atoms: _194  and  _195
REMARK   76  A    between atoms: _195  and  _196
REMARK   77  A    between atoms: _205  and  _207
REMARK   78  A    between atoms: _207  and  _208
REMARK   79  A    between atoms: _207  and  _210
REMARK   80  A    between atoms: _210  and  _211
REMARK   81  A    between atoms: _214  and  _216
REMARK   82  A    between atoms: _216  and  _217
REMARK   83  A    between atoms: _216  and  _219
REMARK   84  A    between atoms: _219  and  _220
REMARK   85  A    between atoms: _220  and  _221
REMARK   86  A    between atoms: _221  and  _222
REMARK   87  A    between atoms: _222  and  _223
REMARK   88  A    between atoms: _227  and  _229
REMARK   89  A    between atoms: _229  and  _230
REMARK   90  A    between atoms: _229  and  _232
REMARK   91  A    between atoms: _232  and  _233
REMARK   92  A    between atoms: _233  and  _234
REMARK   93  A    between atoms: _239  and  _241
REMARK   94  A    between atoms: _241  and  _242
REMARK   95  A    between atoms: _241  and  _244
REMARK   96  A    between atoms: _244  and  _245
REMARK   97  A    between atoms: _245  and  _246
REMARK   98  A    between atoms: _246  and  _247
REMARK   99  A    between atoms: _256  and  _258
REMARK  100  A    between atoms: _258  and  _259
REMARK  101  A    between atoms: _258  and  _261
REMARK  102  A    between atoms: _261  and  _262
REMARK  103  A    between atoms: _262  and  _263
REMARK  104  A    between atoms: _265  and  _267
REMARK  105  A    between atoms: _267  and  _268
REMARK  106  A    between atoms: _267  and  _270
REMARK  107  A    between atoms: _270  and  _271
REMARK  108  A    between atoms: _274  and  _276
REMARK  109  A    between atoms: _276  and  _277
REMARK  110  A    between atoms: _276  and  _279
REMARK  111  A    between atoms: _279  and  _280
REMARK  112  A    between atoms: _280  and  _281
REMARK  113  A    between atoms: _286  and  _288
REMARK  114  A    between atoms: _288  and  _289
REMARK  115  A    between atoms: _288  and  _291
REMARK  116  A    between atoms: _291  and  _292
REMARK  117  A    between atoms: _295  and  _297
REMARK  118  A    between atoms: _297  and  _298
REMARK  119  A    between atoms: _297  and  _300
REMARK  120  A    between atoms: _300  and  _301
REMARK  121  A    between atoms: _303  and  _305
REMARK  122  A    between atoms: _305  and  _306
REMARK  123  A    between atoms: _305  and  _308
REMARK  124  A    between atoms: _308  and  _309
REMARK  125  A    between atoms: _312  and  _314
REMARK  126  A    between atoms: _314  and  _315
REMARK  127  A    between atoms: _314  and  _317
REMARK  128  A    between atoms: _320  and  _322
REMARK  129  A    between atoms: _322  and  _323
REMARK  130  A    between atoms: _322  and  _325
REMARK  131  A    between atoms: _325  and  _326
REMARK  132  A    between atoms: _331  and  _333
REMARK  133  A    between atoms: _344  and  _347
REMARK  134  A    between atoms: _347  and  _348
REMARK  135  A    between atoms: _348  and  _349
REMARK  136  A    between atoms: _354  and  _357
REMARK  137  A    between atoms: _357  and  _358
REMARK  138  A    between atoms: _358  and  _359
REMARK  139  A    between atoms: _368  and  _369
REMARK  140  A    between atoms: _377  and  _379
REMARK  141  A    between atoms: _379  and  _380
REMARK  142  A    between atoms: _379  and  _382
REMARK  143  A    between atoms: _382  and  _383
REMARK  144  A    between atoms: _386  and  _388
REMARK  145  A    between atoms: _388  and  _389
REMARK  146  A    between atoms: _388  and  _391
REMARK  147  A    between atoms: _391  and  _392
REMARK  148  A    between atoms: _397  and  _398
REMARK  149  A    between atoms: _400  and  _402
REMARK  150  A    between atoms: _402  and  _403
REMARK  151  A    between atoms: _402  and  _405
REMARK  152  A    between atoms: _405  and  _406
REMARK  153  A    between atoms: _411  and  _412
REMARK  154  A    between atoms: _414  and  _416
REMARK  155  A    between atoms: _416  and  _417
REMARK  156  A    between atoms: _416  and  _419
REMARK  157  A    between atoms: _419  and  _420
REMARK  158  A    between atoms: _425  and  _426
REMARK  159  A    between atoms: _428  and  _430
REMARK  160  A    between atoms: _430  and  _431
REMARK  161  A    between atoms: _430  and  _433
REMARK  162  A    between atoms: _433  and  _434
REMARK  163  A    between atoms: _434  and  _435
REMARK  164  A    between atoms: _435  and  _436
REMARK  165  A    between atoms: _445  and  _447
REMARK  166  A    between atoms: _447  and  _448
REMARK  167  A    between atoms: _447  and  _450
REMARK  168  A    between atoms: _450  and  _451
REMARK  169  A    between atoms: _451  and  _452
REMARK  170  A    between atoms: _452  and  _453
REMARK  171  A    between atoms: _462  and  _464
REMARK  172  A    between atoms: _464  and  _465
REMARK  173  A    between atoms: _467  and  _469
REMARK  174  A    between atoms: _469  and  _470
REMARK  175  A    between atoms: _473  and  _475
REMARK  176  A    between atoms: _475  and  _476
REMARK  177  A    between atoms: _475  and  _478
REMARK  178  A    between atoms: _478  and  _479
REMARK  179  A    between atoms: _485  and  _486
REMARK  180  A    between atoms: _491  and  _493
REMARK  181  A    between atoms: _493  and  _494
REMARK  182  A    between atoms: _496  and  _498
REMARK  183  A    between atoms: _498  and  _499
REMARK  184  A    between atoms: _498  and  _501
REMARK  185  A    between atoms: _501  and  _502
REMARK  186  A    between atoms: _508  and  _510
REMARK  187  A    between atoms: _510  and  _511
REMARK  188  A    between atoms: _510  and  _513
REMARK  189  A    between atoms: _513  and  _514
REMARK  190  A    between atoms: _519  and  _521
REMARK  191  A    between atoms: _521  and  _522
REMARK  192  A    between atoms: _521  and  _524
REMARK  193  A    between atoms: _524  and  _525
REMARK  194  A    between atoms: _525  and  _526
REMARK  195  A    between atoms: _526  and  _527
REMARK  196  A    between atoms: _527  and  ZN_792
REMARK  197  A    between atoms: _529  and  _531
REMARK  198  A    between atoms: _531  and  _532
REMARK  199  A    between atoms: _535  and  _537
REMARK  200  A    between atoms: _537  and  _538
REMARK  201  A    between atoms: _540  and  _542
REMARK  202  A    between atoms: _542  and  _543
REMARK  203  A    between atoms: _542  and  _545
REMARK  204  A    between atoms: _545  and  _546
REMARK  205  A    between atoms: _549  and  _551
REMARK  206  A    between atoms: _551  and  _552
REMARK  207  A    between atoms: _551  and  _554
REMARK  208  A    between atoms: _557  and  _559
REMARK  209  A    between atoms: _559  and  _560
REMARK  210  A    between atoms: _563  and  _565
REMARK  211  A    between atoms: _565  and  _566
REMARK  212  A    between atoms: _565  and  _568
REMARK  213  A    between atoms: _568  and  _569
REMARK  214  A    between atoms: _572  and  _574
REMARK  215  A    between atoms: _574  and  _575
REMARK  216  A    between atoms: _574  and  _577
REMARK  217  A    between atoms: _577  and  _578
REMARK  218  A    between atoms: _578  and  _579
REMARK  219  A    between atoms: _582  and  _584
REMARK  220  A    between atoms: _584  and  _585
REMARK  221  A    between atoms: _584  and  _587
REMARK  222  A    between atoms: _587  and  _588
REMARK  223  A    between atoms: _588  and  _589
REMARK  224  A    between atoms: _589  and  _590
REMARK  225  A    between atoms: _590  and  _591
REMARK  226  A    between atoms: _595  and  _597
REMARK  227  A    between atoms: _597  and  _598
REMARK  228  A    between atoms: _597  and  _600
REMARK  229  A    between atoms: _600  and  _601
REMARK  230  A    between atoms: _607  and  _609
REMARK  231  A    between atoms: _609  and  _610
REMARK  232  A    between atoms: _609  and  _612
REMARK  233  A    between atoms: _612  and  _613
REMARK  234  A    between atoms: _619  and  _621
REMARK  235  A    between atoms: _621  and  _622
REMARK  236  A    between atoms: _624  and  _626
REMARK  237  A    between atoms: _626  and  _627
REMARK  238  A    between atoms: _626  and  _629
REMARK  239  A    between atoms: _632  and  _634
REMARK  240  A    between atoms: _634  and  _635
REMARK  241  A    between atoms: _634  and  _637
REMARK  242  A    between atoms: _637  and  _638
REMARK  243  A    between atoms: _638  and  _639
REMARK  244  A    between atoms: _639  and  _640
REMARK  245  A    between atoms: _640  and  _641
REMARK  246  A    between atoms: _645  and  _647
REMARK  247  A    between atoms: _647  and  _648
REMARK  248  A    between atoms: _647  and  _650
REMARK  249  A    between atoms: _650  and  _651
REMARK  250  A    between atoms: _657  and  _659
REMARK  251  A    between atoms: _659  and  _660
REMARK  252  A    between atoms: _659  and  _662
REMARK  253  A    between atoms: _662  and  _663
REMARK  254  A    between atoms: _668  and  _670
REMARK  255  A    between atoms: _670  and  _671
REMARK  256  A    between atoms: _670  and  _673
REMARK  257  A    between atoms: _673  and  _674
REMARK  258  A    between atoms: _679  and  _681
REMARK  259  A    between atoms: _681  and  _682
REMARK  260  A    between atoms: _681  and  _684
REMARK  261  A    between atoms: _687  and  _689
REMARK  262  A    between atoms: _689  and  _690
REMARK  263  A    between atoms: _689  and  _692
REMARK  264  A    between atoms: _692  and  _693
REMARK  265  A    between atoms: _697  and  _698
REMARK  266  A    between atoms: _703  and  _705
REMARK  267  A    between atoms: _705  and  _706
REMARK  268  A    between atoms: _705  and  _708
REMARK  269  A    between atoms: _708  and  _709
REMARK  270  A    between atoms: _714  and  _715
REMARK  271  A    between atoms: _717  and  _719
REMARK  272  A    between atoms: _719  and  _720
REMARK  273  A    between atoms: _719  and  _722
REMARK  274  A    between atoms: _722  and  _723
REMARK  275  A    between atoms: _723  and  _724
REMARK  276  A    between atoms: _724  and  _725
REMARK  277  A    between atoms: _734  and  _736
REMARK  278  A    between atoms: _736  and  _737
REMARK  279  A    between atoms: _736  and  _739
REMARK  280  A    between atoms: _739  and  _740
REMARK  281  A    between atoms: _745  and  _746
REMARK  282  A    between atoms: _748  and  _750
REMARK  283  A    between atoms: _750  and  _751
REMARK  284  A    between atoms: _750  and  _753
REMARK  285  A    between atoms: _753  and  _754
REMARK  286  A    between atoms: _760  and  _762
REMARK  287  A    between atoms: _762  and  _763
REMARK  288  A    between atoms: _762  and  _765
REMARK  289  A    between atoms: _765  and  _766
REMARK  290  A    between atoms: _768  and  _770
REMARK  291  A    between atoms: _770  and  _771
REMARK  292  A    between atoms: _770  and  _773
REMARK  293  A    between atoms: _773  and  _774
REMARK  294  A    between atoms: _780  and  _782
REMARK  295  A    between atoms: _782  and  _783
REMARK  296  A    between atoms: _782  and  _785
REMARK  297  A    between atoms: _785  and  _786
REMARK  298  A    between atoms: _786  and  _787
REMARK                            x       y       z     vdW  Elec       q    Type
REMARK                         _______ _______ _______ _____ _____    ______ ____
ROOT
ATOM      1  CB  PHE A   1       9.812 -13.260 -14.879  0.00  0.00    +0.051 C 
ENDROOT
BRANCH   1   2
ATOM      2  CG  PHE A   1       8.307 -13.289 -15.068  0.00  0.00    -0.020 A 
ATOM      3  CD2 PHE A   1       7.504 -14.100 -14.273  0.00  0.00    -0.004 A 
ATOM      4  CE2 PHE A   1       6.122 -14.124 -14.441  0.00  0.00    -0.000 A 
ATOM      5  CZ  PHE A   1       5.535 -13.331 -15.415  0.00  0.00    -0.000 A 
ATOM      6  CE1 PHE A   1       6.321 -12.512 -16.210  0.00  0.00    -0.000 A 
ATOM      7  CD1 PHE A   1       7.703 -12.506 -16.049  0.00  0.00    -0.004 A 
ENDBRANCH   1   2
BRANCH   1   8
ATOM      8  CA  PHE A   1      10.313 -12.074 -14.019  0.00  0.00    +0.137 C 
BRANCH   8   9
ATOM      9  N   PHE A   1      11.772 -12.112 -13.870  0.00  0.00    -0.239 NA
ATOM     10  H   PHE A   1      12.279 -12.985 -14.119  0.00  0.00    +0.142 HD
ENDBRANCH   8   9
BRANCH   8  11
ATOM     11  C   PHE A   1       9.537 -12.027 -12.702  0.00  0.00    +0.224 C 
ATOM     12  O   PHE A   1       8.464 -11.429 -12.640  0.00  0.00    -0.287 OA
ENDBRANCH   8  11
ENDBRANCH   1   8
TORSDOF 4
REMARK  Name = ../refined-set-2016/4ca6/4ca6_pocket.pdb
REMARK  298 active torsions:
REMARK  status: ('A' for Active; 'I' for Inactive)
REMARK    1  A    between atoms: _1  and  _3
REMARK    2  A    between atoms: _3  and  _4
REMARK    3  A    between atoms: _3  and  _6
REMARK    4  A    between atoms: _6  and  _7
REMARK    5  A    between atoms: _10  and  _12
REMARK    6  A    between atoms: _12  and  _13
REMARK    7  A    between atoms: _12  and  _15
REMARK    8  A    between atoms: _15  and  _16
REMARK    9  A    between atoms: _18  and  _20
REMARK   10  A    between atoms: _20  and  _21
REMARK   11  A    between atoms: _20  and  _23
REMARK   12  A    between atoms: _23  and  _24
REMARK   13  A    between atoms: _29  and  _30
REMARK   14  A    between atoms: _32  and  _34
REMARK   15  A    between atoms: _34  and  _35
REMARK   16  A    between atoms: _34  and  _37
REMARK   17  A    between atoms: _37  and  _38
REMARK   18  A    between atoms: _48  and  _50
REMARK   19  A    between atoms: _50  and  _51
REMARK   20  A    between atoms: _50  and  _53
REMARK   21  A    between atoms: _53  and  _54
REMARK   22  A    between atoms: _57  and  _59
REMARK   23  A    between atoms: _59  and  _60
REMARK   24  A    between atoms: _59  and  _62
REMARK   25  A    between atoms: _62  and  _63
REMARK   26  A    between atoms: _73  and  _75
REMARK   27  A    between atoms: _75  and  _76
REMARK   28  A    between atoms: _75  and  _78
REMARK   29  A    between atoms: _78  and  _79
REMARK   30  A    between atoms: _79  and  _80
REMARK   31  A    between atoms: _85  and  _87
REMARK   32  A    between atoms: _87  and  _88
REMARK   33  A    between atoms: _87  and  _90
REMARK   34  A    between atoms: _90  and  _91
REMARK   35  A    between atoms: _93  and  _95
REMARK   36  A    between atoms: _95  and  _96
REMARK   37  A    between atoms: _95  and  _98
REMARK   38  A    between atoms: _98  and  _99
REMARK   39  A    between atoms: _99  and  _100
REMARK   40  A    between atoms: _103  and  _105
REMARK   41  A    between atoms: _105  and  _106
REMARK   42  A    between atoms: _105  and  _108
REMARK   43  A    between atoms: _111  and  _113
REMARK   44  A    between atoms: _113  and  _114
REMARK   45  A    between atoms: _113  and  _116
REMARK   46  A    between atoms: _118  and  _120
REMARK   47  A    between atoms: _120  and  _121
REMARK   48  A    between atoms: _120  and  _123
REMARK   49  A    between atoms: _123  and  _124
REMARK   50  A    between atoms: _129  and  _131
REMARK   51  A    between atoms: _131  and  _132
REMARK   52  A    between atoms: _135  and  _137
REMARK   53  A    between atoms: _137  and  _138
REMARK   54  A    between atoms: _137  and  _140
REMARK   55  A    between atoms: _140  and  _141
REMARK   56  A    between atoms: _143  and  _145
REMARK   57  A    between atoms: _145  and  _146
REMARK   58  A    between atoms: _149  and  _151
REMARK   59  A    between atoms: _151  and  _152
REMARK   60  A    between atoms: _151  and  _154
REMARK   61  A    between atoms: _154  and  _155
REMARK   62  A    between atoms: _165  and  _167
REMARK   63  A    between atoms: _167  and  _168
REMARK   64  A    between atoms: _167  and  _170
REMARK   65  A    between atoms: _170  and  _171
REMARK   66  A    between atoms: _174  and  _176
REMARK   67  A    between atoms: _176  and  _177
REMARK   68  A    between atoms: _176  and  _179
REMARK   69  A    between atoms: _179  and  _180
REMARK   70  A    between atoms: _185  and  _186
REMARK   71  A    between atoms: _188  and  _190
REMARK   72  A    between atoms: _190  and  _191
REMARK   73  A    between atoms: _190  and  _193
REMARK   74  A    between atoms: _193  and  _194
REMARK   75  A    between atoms: _194  and  _195
REMARK   76  A    between atoms: _195  and  _196
REMARK   77  A    between atoms: _205  and  _207
REMARK   78  A    between atoms: _207  and  _208
REMARK   79  A    between atoms: _207  and  _210
REMARK   80  A    between atoms: _210  and  _211
REMARK   81  A    between atoms: _214  and  _216
REMARK   82  A    between atoms: _216  and  _217
REMARK   83  A    between atoms: _216  and  _219
REMARK   84  A    between atoms: _219  and  _220
REMARK   85  A    between atoms: _220  and  _221
REMARK   86  A    between atoms: _221  and  _222
REMARK   87  A    between atoms: _222  and  _223
REMARK   88  A    between atoms: _227  and  _229
REMARK   89  A    between atoms: _229  and  _230
REMARK   90  A    between atoms: _229  and  _232
REMARK   91  A    between atoms: _232  and  _233
REMARK   92  A    between atoms: _233  and  _234
REMARK   93  A    between atoms: _239  and  _241
REMARK   94  A    between atoms: _241  and  _242
REMARK   95  A    between atoms: _241  and  _244
REMARK   96  A    between atoms: _244  and  _245
REMARK   97  A    between atoms: _245  and  _246
REMARK   98  A    between atoms: _246  and  _247
REMARK   99  A    between atoms: _256  and  _258
REMARK  100  A    between atoms: _258  and  _259
REMARK  101  A    between atoms: _258  and  _261
REMARK  102  A    between atoms: _261  and  _262
REMARK  103  A    between atoms: _262  and  _263
REMARK  104  A    between atoms: _265  and  _267
REMARK  105  A    between atoms: _267  and  _268
REMARK  106  A    between atoms: _267  and  _270
REMARK  107  A    between atoms: _270  and  _271
REMARK  108  A    between atoms: _274  and  _276
REMARK  109  A    between atoms: _276  and  _277
REMARK  110  A    between atoms: _276  and  _279
REMARK  111  A    between atoms: _279  and  _280
REMARK  112  A    between atoms: _280  and  _281
REMARK  113  A    between atoms: _286  and  _288
REMARK  114  A    between atoms: _288  and  _289
REMARK  115  A    between atoms: _288  and  _291
REMARK  116  A    between atoms: _291  and  _292
REMARK  117  A    between atoms: _295  and  _297
REMARK  118  A    between atoms: _297  and  _298
REMARK  119  A    between atoms: _297  and  _300
REMARK  120  A    between atoms: _300  and  _301
REMARK  121  A    between atoms: _303  and  _305
REMARK  122  A    between atoms: _305  and  _306
REMARK  123  A    between atoms: _305  and  _308
REMARK  124  A    between atoms: _308  and  _309
REMARK  125  A    between atoms: _312  and  _314
REMARK  126  A    between atoms: _314  and  _315
REMARK  127  A    between atoms: _314  and  _317
REMARK  128  A    between atoms: _320  and  _322
REMARK  129  A    between atoms: _322  and  _323
REMARK  130  A    between atoms: _322  and  _325
REMARK  131  A    between atoms: _325  and  _326
REMARK  132  A    between atoms: _331  and  _333
REMARK  133  A    between atoms: _344  and  _347
REMARK  134  A    between atoms: _347  and  _348
REMARK  135  A    between atoms: _348  and  _349
REMARK  136  A    between atoms: _354  and  _357
REMARK  137  A    between atoms: _357  and  _358
REMARK  138  A    between atoms: _358  and  _359
REMARK  139  A    between atoms: _368  and  _369
REMARK  140  A    between atoms: _377  and  _379
REMARK  141  A    between atoms: _379  and  _380
REMARK  142  A    between atoms: _379  and  _382
REMARK  143  A    between atoms: _382  and  _383
REMARK  144  A    between atoms: _386  and  _388
REMARK  145  A    between atoms: _388  and  _389
REMARK  146  A    between atoms: _388  and  _391
REMARK  147  A    between atoms: _391  and  _392
REMARK  148  A    between atoms: _397  and  _398
REMARK  149  A    between atoms: _400  and  _402
REMARK  150  A    between atoms: _402  and  _403
REMARK  151  A    between atoms: _402  and  _405
REMARK  152  A    between atoms: _405  and  _406
REMARK  153  A    between atoms: _411  and  _412
REMARK  154  A    between atoms: _414  and  _416
REMARK  155  A    between atoms: _416  and  _417
REMARK  156  A    between atoms: _416  and  _419
REMARK  157  A    between atoms: _419  and  _420
REMARK  158  A    between atoms: _425  and  _426
REMARK  159  A    between atoms: _428  and  _430
REMARK  160  A    between atoms: _430  and  _431
REMARK  161  A    between atoms: _430  and  _433
REMARK  162  A    between atoms: _433  and  _434
REMARK  163  A    between atoms: _434  and  _435
REMARK  164  A    between atoms: _435  and  _436
REMARK  165  A    between atoms: _445  and  _447
REMARK  166  A    between atoms: _447  and  _448
REMARK  167  A    between atoms: _447  and  _450
REMARK  168  A    between atoms: _450  and  _451
REMARK  169  A    between atoms: _451  and  _452
REMARK  170  A    between atoms: _452  and  _453
REMARK  171  A    between atoms: _462  and  _464
REMARK  172  A    between atoms: _464  and  _465
REMARK  173  A    between atoms: _467  and  _469
REMARK  174  A    between atoms: _469  and  _470
REMARK  175  A    between atoms: _473  and  _475
REMARK  176  A    between atoms: _475  and  _476
REMARK  177  A    between atoms: _475  and  _478
REMARK  178  A    between atoms: _478  and  _479
REMARK  179  A    between atoms: _485  and  _486
REMARK  180  A    between atoms: _491  and  _493
REMARK  181  A    between atoms: _493  and  _494
REMARK  182  A    between atoms: _496  and  _498
REMARK  183  A    between atoms: _498  and  _499
REMARK  184  A    between atoms: _498  and  _501
REMARK  185  A    between atoms: _501  and  _502
REMARK  186  A    between atoms: _508  and  _510
REMARK  187  A    between atoms: _510  and  _511
REMARK  188  A    between atoms: _510  and  _513
REMARK  189  A    between atoms: _513  and  _514
REMARK  190  A    between atoms: _519  and  _521
REMARK  191  A    between atoms: _521  and  _522
REMARK  192  A    between atoms: _521  and  _524
REMARK  193  A    between atoms: _524  and  _525
REMARK  194  A    between atoms: _525  and  _526
REMARK  195  A    between atoms: _526  and  _527
REMARK  196  A    between atoms: _527  and  ZN_792
REMARK  197  A    between atoms: _529  and  _531
REMARK  198  A    between atoms: _531  and  _532
REMARK  199  A    between atoms: _535  and  _537
REMARK  200  A    between atoms: _537  and  _538
REMARK  201  A    between atoms: _540  and  _542
REMARK  202  A    between atoms: _542  and  _543
REMARK  203  A    between atoms: _542  and  _545
REMARK  204  A    between atoms: _545  and  _546
REMARK  205  A    between atoms: _549  and  _551
REMARK  206  A    between atoms: _551  and  _552
REMARK  207  A    between atoms: _551  and  _554
REMARK  208  A    between atoms: _557  and  _559
REMARK  209  A    between atoms: _559  and  _560
REMARK  210  A    between atoms: _563  and  _565
REMARK  211  A    between atoms: _565  and  _566
REMARK  212  A    between atoms: _565  and  _568
REMARK  213  A    between atoms: _568  and  _569
REMARK  214  A    between atoms: _572  and  _574
REMARK  215  A    between atoms: _574  and  _575
REMARK  216  A    between atoms: _574  and  _577
REMARK  217  A    between atoms: _577  and  _578
REMARK  218  A    between atoms: _578  and  _579
REMARK  219  A    between atoms: _582  and  _584
REMARK  220  A    between atoms: _584  and  _585
REMARK  221  A    between atoms: _584  and  _587
REMARK  222  A    between atoms: _587  and  _588
REMARK  223  A    between atoms: _588  and  _589
REMARK  224  A    between atoms: _589  and  _590
REMARK  225  A    between atoms: _590  and  _591
REMARK  226  A    between atoms: _595  and  _597
REMARK  227  A    between atoms: _597  and  _598
REMARK  228  A    between atoms: _597  and  _600
REMARK  229  A    between atoms: _600  and  _601
REMARK  230  A    between atoms: _607  and  _609
REMARK  231  A    between atoms: _609  and  _610
REMARK  232  A    between atoms: _609  and  _612
REMARK  233  A    between atoms: _612  and  _613
REMARK  234  A    between atoms: _619  and  _621
REMARK  235  A    between atoms: _621  and  _622
REMARK  236  A    between atoms: _624  and  _626
REMARK  237  A    between atoms: _626  and  _627
REMARK  238  A    between atoms: _626  and  _629
REMARK  239  A    between atoms: _632  and  _634
REMARK  240  A    between atoms: _634  and  _635
REMARK  241  A    between atoms: _634  and  _637
REMARK  242  A    between atoms: _637  and  _638
REMARK  243  A    between atoms: _638  and  _639
REMARK  244  A    between atoms: _639  and  _640
REMARK  245  A    between atoms: _640  and  _641
REMARK  246  A    between atoms: _645  and  _647
REMARK  247  A    between atoms: _647  and  _648
REMARK  248  A    between atoms: _647  and  _650
REMARK  249  A    between atoms: _650  and  _651
REMARK  250  A    between atoms: _657  and  _659
REMARK  251  A    between atoms: _659  and  _660
REMARK  252  A    between atoms: _659  and  _662
REMARK  253  A    between atoms: _662  and  _663
REMARK  254  A    between atoms: _668  and  _670
REMARK  255  A    between atoms: _670  and  _671
REMARK  256  A    between atoms: _670  and  _673
REMARK  257  A    between atoms: _673  and  _674
REMARK  258  A    between atoms: _679  and  _681
REMARK  259  A    between atoms: _681  and  _682
REMARK  260  A    between atoms: _681  and  _684
REMARK  261  A    between atoms: _687  and  _689
REMARK  262  A    between atoms: _689  and  _690
REMARK  263  A    between atoms: _689  and  _692
REMARK  264  A    between atoms: _692  and  _693
REMARK  265  A    between atoms: _697  and  _698
REMARK  266  A    between atoms: _703  and  _705
REMARK  267  A    between atoms: _705  and  _706
REMARK  268  A    between atoms: _705  and  _708
REMARK  269  A    between atoms: _708  and  _709
REMARK  270  A    between atoms: _714  and  _715
REMARK  271  A    between atoms: _717  and  _719
REMARK  272  A    between atoms: _719  and  _720
REMARK  273  A    between atoms: _719  and  _722
REMARK  274  A    between atoms: _722  and  _723
REMARK  275  A    between atoms: _723  and  _724
REMARK  276  A    between atoms: _724  and  _725
REMARK  277  A    between atoms: _734  and  _736
REMARK  278  A    between atoms: _736  and  _737
REMARK  279  A    between atoms: _736  and  _739
REMARK  280  A    between atoms: _739  and  _740
REMARK  281  A    between atoms: _745  and  _746
REMARK  282  A    between atoms: _748  and  _750
REMARK  283  A    between atoms: _750  and  _751
REMARK  284  A    between atoms: _750  and  _753
REMARK  285  A    between atoms: _753  and  _754
REMARK  286  A    between atoms: _760  and  _762
REMARK  287  A    between atoms: _762  and  _763
REMARK  288  A    between atoms: _762  and  _765
REMARK  289  A    between atoms: _765  and  _766
REMARK  290  A    between atoms: _768  and  _770
REMARK  291  A    between atoms: _770  and  _771
REMARK  292  A    between atoms: _770  and  _773
REMARK  293  A    between atoms: _773  and  _774
REMARK  294  A    between atoms: _780  and  _782
REMARK  295  A    between atoms: _782  and  _783
REMARK  296  A    between atoms: _782  and  _785
REMARK  297  A    between atoms: _785  and  _786
REMARK  298  A    between atoms: _786  and  _787
REMARK                            x       y       z     vdW  Elec       q    Type
REMARK                         _______ _______ _______ _____ _____    ______ ____
ROOT
ATOM      1  CA  PHE A   1       6.686  -8.511 -12.297  0.00  0.00    +0.149 C 
ENDROOT
BRANCH   1   2
ATOM      2  C   PHE A   1       5.485  -9.439 -12.199  0.00  0.00    +0.239 C 
ATOM      3  O   PHE A   1       4.348  -8.965 -12.098  0.00  0.00    -0.274 OA
ATOM      4  N   GLY A   2       5.740 -10.747 -12.231  0.00  0.00    -0.297 N 
ATOM      5  H   GLY A   2       6.723 -11.067 -12.342  0.00  0.00    +0.150 HD
BRANCH   4   6
ATOM      6  CA  GLY A   2       4.678 -11.744 -12.114  0.00  0.00    +0.163 C 
BRANCH   6   7
ATOM      7  C   GLY A   2       3.852 -11.552 -10.853  0.00  0.00    +0.229 C 
ATOM      8  O   GLY A   2       2.646 -11.848 -10.846  0.00  0.00    -0.286 OA
ENDBRANCH   6   7
ENDBRANCH   4   6
ENDBRANCH   1   2
BRANCH   1   9
ATOM      9  N   PHE A   1       7.724  -8.938 -11.386  0.00  0.00    -0.238 NA
ATOM     10  H   PHE A   1       8.621  -9.312 -11.756  0.00  0.00    +0.142 HD
ENDBRANCH   1   9
BRANCH   1  11
ATOM     11  CB  PHE A   1       7.197  -8.447 -13.734  0.00  0.00    +0.053 C 
BRANCH  11  12
ATOM     12  CG  PHE A   1       6.248  -7.745 -14.672  0.00  0.00    -0.020 A 
ATOM     13  CD2 PHE A   1       6.068  -6.367 -14.591  0.00  0.00    -0.004 A 
ATOM     14  CE2 PHE A   1       5.180  -5.707 -15.436  0.00  0.00    -0.000 A 
ATOM     15  CZ  PHE A   1       4.474  -6.426 -16.388  0.00  0.00    -0.000 A 
ATOM     16  CE1 PHE A   1       4.648  -7.798 -16.472  0.00  0.00    -0.000 A 
ATOM     17  CD1 PHE A   1       5.536  -8.452 -15.613  0.00  0.00    -0.004 A 
ENDBRANCH  11  12
ENDBRANCH   1  11
TORSDOF 6
REMARK  Name = ../refined-set-2016/4ca6/4ca6_pocket.pdb
REMARK  298 active torsions:
REMARK  status: ('A' for Active; 'I' for Inactive)
REMARK    1  A    between atoms: _1  and  _3
REMARK    2  A    between atoms: _3  and  _4
REMARK    3  A    between atoms: _3  and  _6
REMARK    4  A    between atoms: _6  and  _7
REMARK    5  A    between atoms: _10  and  _12
REMARK    6  A    between atoms: _12  and  _13
REMARK    7  A    between atoms: _12  and  _15
REMARK    8  A    between atoms: _15  and  _16
REMARK    9  A    between atoms: _18  and  _20
REMARK   10  A    between atoms: _20  and  _21
REMARK   11  A    between atoms: _20  and  _23
REMARK   12  A    between atoms: _23  and  _24
REMARK   13  A    between atoms: _29  and  _30
REMARK   14  A    between atoms: _32  and  _34
REMARK   15  A    between atoms: _34  and  _35
REMARK   16  A    between atoms: _34  and  _37
REMARK   17  A    between atoms: _37  and  _38
REMARK   18  A    between atoms: _48  and  _50
REMARK   19  A    between atoms: _50  and  _51
REMARK   20  A    between atoms: _50  and  _53
REMARK   21  A    between atoms: _53  and  _54
REMARK   22  A    between atoms: _57  and  _59
REMARK   23  A    between atoms: _59  and  _60
REMARK   24  A    between atoms: _59  and  _62
REMARK   25  A    between atoms: _62  and  _63
REMARK   26  A    between atoms: _73  and  _75
REMARK   27  A    between atoms: _75  and  _76
REMARK   28  A    between atoms: _75  and  _78
REMARK   29  A    between atoms: _78  and  _79
REMARK   30  A    between atoms: _79  and  _80
REMARK   31  A    between atoms: _85  and  _87
REMARK   32  A    between atoms: _87  and  _88
REMARK   33  A    between atoms: _87  and  _90
REMARK   34  A    between atoms: _90  and  _91
REMARK   35  A    between atoms: _93  and  _95
REMARK   36  A    between atoms: _95  and  _96
REMARK   37  A    between atoms: _95  and  _98
REMARK   38  A    between atoms: _98  and  _99
REMARK   39  A    between atoms: _99  and  _100
REMARK   40  A    between atoms: _103  and  _105
REMARK   41  A    between atoms: _105  and  _106
REMARK   42  A    between atoms: _105  and  _108
REMARK   43  A    between atoms: _111  and  _113
REMARK   44  A    between atoms: _113  and  _114
REMARK   45  A    between atoms: _113  and  _116
REMARK   46  A    between atoms: _118  and  _120
REMARK   47  A    between atoms: _120  and  _121
REMARK   48  A    between atoms: _120  and  _123
REMARK   49  A    between atoms: _123  and  _124
REMARK   50  A    between atoms: _129  and  _131
REMARK   51  A    between atoms: _131  and  _132
REMARK   52  A    between atoms: _135  and  _137
REMARK   53  A    between atoms: _137  and  _138
REMARK   54  A    between atoms: _137  and  _140
REMARK   55  A    between atoms: _140  and  _141
REMARK   56  A    between atoms: _143  and  _145
REMARK   57  A    between atoms: _145  and  _146
REMARK   58  A    between atoms: _149  and  _151
REMARK   59  A    between atoms: _151  and  _152
REMARK   60  A    between atoms: _151  and  _154
REMARK   61  A    between atoms: _154  and  _155
REMARK   62  A    between atoms: _165  and  _167
REMARK   63  A    between atoms: _167  and  _168
REMARK   64  A    between atoms: _167  and  _170
REMARK   65  A    between atoms: _170  and  _171
REMARK   66  A    between atoms: _174  and  _176
REMARK   67  A    between atoms: _176  and  _177
REMARK   68  A    between atoms: _176  and  _179
REMARK   69  A    between atoms: _179  and  _180
REMARK   70  A    between atoms: _185  and  _186
REMARK   71  A    between atoms: _188  and  _190
REMARK   72  A    between atoms: _190  and  _191
REMARK   73  A    between atoms: _190  and  _193
REMARK   74  A    between atoms: _193  and  _194
REMARK   75  A    between atoms: _194  and  _195
REMARK   76  A    between atoms: _195  and  _196
REMARK   77  A    between atoms: _205  and  _207
REMARK   78  A    between atoms: _207  and  _208
REMARK   79  A    between atoms: _207  and  _210
REMARK   80  A    between atoms: _210  and  _211
REMARK   81  A    between atoms: _214  and  _216
REMARK   82  A    between atoms: _216  and  _217
REMARK   83  A    between atoms: _216  and  _219
REMARK   84  A    between atoms: _219  and  _220
REMARK   85  A    between atoms: _220  and  _221
REMARK   86  A    between atoms: _221  and  _222
REMARK   87  A    between atoms: _222  and  _223
REMARK   88  A    between atoms: _227  and  _229
REMARK   89  A    between atoms: _229  and  _230
REMARK   90  A    between atoms: _229  and  _232
REMARK   91  A    between atoms: _232  and  _233
REMARK   92  A    between atoms: _233  and  _234
REMARK   93  A    between atoms: _239  and  _241
REMARK   94  A    between atoms: _241  and  _242
REMARK   95  A    between atoms: _241  and  _244
REMARK   96  A    between atoms: _244  and  _245
REMARK   97  A    between atoms: _245  and  _246
REMARK   98  A    between atoms: _246  and  _247
REMARK   99  A    between atoms: _256  and  _258
REMARK  100  A    between atoms: _258  and  _259
REMARK  101  A    between atoms: _258  and  _261
REMARK  102  A    between atoms: _261  and  _262
REMARK  103  A    between atoms: _262  and  _263
REMARK  104  A    between atoms: _265  and  _267
REMARK  105  A    between atoms: _267  and  _268
REMARK  106  A    between atoms: _267  and  _270
REMARK  107  A    between atoms: _270  and  _271
REMARK  108  A    between atoms: _274  and  _276
REMARK  109  A    between atoms: _276  and  _277
REMARK  110  A    between atoms: _276  and  _279
REMARK  111  A    between atoms: _279  and  _280
REMARK  112  A    between atoms: _280  and  _281
REMARK  113  A    between atoms: _286  and  _288
REMARK  114  A    between atoms: _288  and  _289
REMARK  115  A    between atoms: _288  and  _291
REMARK  116  A    between atoms: _291  and  _292
REMARK  117  A    between atoms: _295  and  _297
REMARK  118  A    between atoms: _297  and  _298
REMARK  119  A    between atoms: _297  and  _300
REMARK  120  A    between atoms: _300  and  _301
REMARK  121  A    between atoms: _303  and  _305
REMARK  122  A    between atoms: _305  and  _306
REMARK  123  A    between atoms: _305  and  _308
REMARK  124  A    between atoms: _308  and  _309
REMARK  125  A    between atoms: _312  and  _314
REMARK  126  A    between atoms: _314  and  _315
REMARK  127  A    between atoms: _314  and  _317
REMARK  128  A    between atoms: _320  and  _322
REMARK  129  A    between atoms: _322  and  _323
REMARK  130  A    between atoms: _322  and  _325
REMARK  131  A    between atoms: _325  and  _326
REMARK  132  A    between atoms: _331  and  _333
REMARK  133  A    between atoms: _344  and  _347
REMARK  134  A    between atoms: _347  and  _348
REMARK  135  A    between atoms: _348  and  _349
REMARK  136  A    between atoms: _354  and  _357
REMARK  137  A    between atoms: _357  and  _358
REMARK  138  A    between atoms: _358  and  _359
REMARK  139  A    between atoms: _368  and  _369
REMARK  140  A    between atoms: _377  and  _379
REMARK  141  A    between atoms: _379  and  _380
REMARK  142  A    between atoms: _379  and  _382
REMARK  143  A    between atoms: _382  and  _383
REMARK  144  A    between atoms: _386  and  _388
REMARK  145  A    between atoms: _388  and  _389
REMARK  146  A    between atoms: _388  and  _391
REMARK  147  A    between atoms: _391  and  _392
REMARK  148  A    between atoms: _397  and  _398
REMARK  149  A    between atoms: _400  and  _402
REMARK  150  A    between atoms: _402  and  _403
REMARK  151  A    between atoms: _402  and  _405
REMARK  152  A    between atoms: _405  and  _406
REMARK  153  A    between atoms: _411  and  _412
REMARK  154  A    between atoms: _414  and  _416
REMARK  155  A    between atoms: _416  and  _417
REMARK  156  A    between atoms: _416  and  _419
REMARK  157  A    between atoms: _419  and  _420
REMARK  158  A    between atoms: _425  and  _426
REMARK  159  A    between atoms: _428  and  _430
REMARK  160  A    between atoms: _430  and  _431
REMARK  161  A    between atoms: _430  and  _433
REMARK  162  A    between atoms: _433  and  _434
REMARK  163  A    between atoms: _434  and  _435
REMARK  164  A    between atoms: _435  and  _436
REMARK  165  A    between atoms: _445  and  _447
REMARK  166  A    between atoms: _447  and  _448
REMARK  167  A    between atoms: _447  and  _450
REMARK  168  A    between atoms: _450  and  _451
REMARK  169  A    between atoms: _451  and  _452
REMARK  170  A    between atoms: _452  and  _453
REMARK  171  A    between atoms: _462  and  _464
REMARK  172  A    between atoms: _464  and  _465
REMARK  173  A    between atoms: _467  and  _469
REMARK  174  A    between atoms: _469  and  _470
REMARK  175  A    between atoms: _473  and  _475
REMARK  176  A    between atoms: _475  and  _476
REMARK  177  A    between atoms: _475  and  _478
REMARK  178  A    between atoms: _478  and  _479
REMARK  179  A    between atoms: _485  and  _486
REMARK  180  A    between atoms: _491  and  _493
REMARK  181  A    between atoms: _493  and  _494
REMARK  182  A    between atoms: _496  and  _498
REMARK  183  A    between atoms: _498  and  _499
REMARK  184  A    between atoms: _498  and  _501
REMARK  185  A    between atoms: _501  and  _502
REMARK  186  A    between atoms: _508  and  _510
REMARK  187  A    between atoms: _510  and  _511
REMARK  188  A    between atoms: _510  and  _513
REMARK  189  A    between atoms: _513  and  _514
REMARK  190  A    between atoms: _519  and  _521
REMARK  191  A    between atoms: _521  and  _522
REMARK  192  A    between atoms: _521  and  _524
REMARK  193  A    between atoms: _524  and  _525
REMARK  194  A    between atoms: _525  and  _526
REMARK  195  A    between atoms: _526  and  _527
REMARK  196  A    between atoms: _527  and  ZN_792
REMARK  197  A    between atoms: _529  and  _531
REMARK  198  A    between atoms: _531  and  _532
REMARK  199  A    between atoms: _535  and  _537
REMARK  200  A    between atoms: _537  and  _538
REMARK  201  A    between atoms: _540  and  _542
REMARK  202  A    between atoms: _542  and  _543
REMARK  203  A    between atoms: _542  and  _545
REMARK  204  A    between atoms: _545  and  _546
REMARK  205  A    between atoms: _549  and  _551
REMARK  206  A    between atoms: _551  and  _552
REMARK  207  A    between atoms: _551  and  _554
REMARK  208  A    between atoms: _557  and  _559
REMARK  209  A    between atoms: _559  and  _560
REMARK  210  A    between atoms: _563  and  _565
REMARK  211  A    between atoms: _565  and  _566
REMARK  212  A    between atoms: _565  and  _568
REMARK  213  A    between atoms: _568  and  _569
REMARK  214  A    between atoms: _572  and  _574
REMARK  215  A    between atoms: _574  and  _575
REMARK  216  A    between atoms: _574  and  _577
REMARK  217  A    between atoms: _577  and  _578
REMARK  218  A    between atoms: _578  and  _579
REMARK  219  A    between atoms: _582  and  _584
REMARK  220  A    between atoms: _584  and  _585
REMARK  221  A    between atoms: _584  and  _587
REMARK  222  A    between atoms: _587  and  _588
REMARK  223  A    between atoms: _588  and  _589
REMARK  224  A    between atoms: _589  and  _590
REMARK  225  A    between atoms: _590  and  _591
REMARK  226  A    between atoms: _595  and  _597
REMARK  227  A    between atoms: _597  and  _598
REMARK  228  A    between atoms: _597  and  _600
REMARK  229  A    between atoms: _600  and  _601
REMARK  230  A    between atoms: _607  and  _609
REMARK  231  A    between atoms: _609  and  _610
REMARK  232  A    between atoms: _609  and  _612
REMARK  233  A    between atoms: _612  and  _613
REMARK  234  A    between atoms: _619  and  _621
REMARK  235  A    between atoms: _621  and  _622
REMARK  236  A    between atoms: _624  and  _626
REMARK  237  A    between atoms: _626  and  _627
REMARK  238  A    between atoms: _626  and  _629
REMARK  239  A    between atoms: _632  and  _634
REMARK  240  A    between atoms: _634  and  _635
REMARK  241  A    between atoms: _634  and  _637
REMARK  242  A    between atoms: _637  and  _638
REMARK  243  A    between atoms: _638  and  _639
REMARK  244  A    between atoms: _639  and  _640
REMARK  245  A    between atoms: _640  and  _641
REMARK  246  A    between atoms: _645  and  _647
REMARK  247  A    between atoms: _647  and  _648
REMARK  248  A    between atoms: _647  and  _650
REMARK  249  A    between atoms: _650  and  _651
REMARK  250  A    between atoms: _657  and  _659
REMARK  251  A    between atoms: _659  and  _660
REMARK  252  A    between atoms: _659  and  _662
REMARK  253  A    between atoms: _662  and  _663
REMARK  254  A    between atoms: _668  and  _670
REMARK  255  A    between atoms: _670  and  _671
REMARK  256  A    between atoms: _670  and  _673
REMARK  257  A    between atoms: _673  and  _674
REMARK  258  A    between atoms: _679  and  _681
REMARK  259  A    between atoms: _681  and  _682
REMARK  260  A    between atoms: _681  and  _684
REMARK  261  A    between atoms: _687  and  _689
REMARK  262  A    between atoms: _689  and  _690
REMARK  263  A    between atoms: _689  and  _692
REMARK  264  A    between atoms: _692  and  _693
REMARK  265  A    between atoms: _697  and  _698
REMARK  266  A    between atoms: _703  and  _705
REMARK  267  A    between atoms: _705  and  _706
REMARK  268  A    between atoms: _705  and  _708
REMARK  269  A    between atoms: _708  and  _709
REMARK  270  A    between atoms: _714  and  _715
REMARK  271  A    between atoms: _717  and  _719
REMARK  272  A    between atoms: _719  and  _720
REMARK  273  A    between atoms: _719  and  _722
REMARK  274  A    between atoms: _722  and  _723
REMARK  275  A    between atoms: _723  and  _724
REMARK  276  A    between atoms: _724  and  _725
REMARK  277  A    between atoms: _734  and  _736
REMARK  278  A    between atoms: _736  and  _737
REMARK  279  A    between atoms: _736  and  _739
REMARK  280  A    between atoms: _739  and  _740
REMARK  281  A    between atoms: _745  and  _746
REMARK  282  A    between atoms: _748  and  _750
REMARK  283  A    between atoms: _750  and  _751
REMARK  284  A    between atoms: _750  and  _753
REMARK  285  A    between atoms: _753  and  _754
REMARK  286  A    between atoms: _760  and  _762
REMARK  287  A    between atoms: _762  and  _763
REMARK  288  A    between atoms: _762  and  _765
REMARK  289  A    between atoms: _765  and  _766
REMARK  290  A    between atoms: _768  and  _770
REMARK  291  A    between atoms: _770  and  _771
REMARK  292  A    between atoms: _770  and  _773
REMARK  293  A    between atoms: _773  and  _774
REMARK  294  A    between atoms: _780  and  _782
REMARK  295  A    between atoms: _782  and  _783
REMARK  296  A    between atoms: _782  and  _785
REMARK  297  A    between atoms: _785  and  _786
REMARK  298  A    between atoms: _786  and  _787
REMARK                            x       y       z     vdW  Elec       q    Type
REMARK                         _______ _______ _______ _____ _____    ______ ____
ROOT
ATOM      1  CA  VAL A   1       0.637  -7.011 -11.844  0.00  0.00    +0.133 C 
ENDROOT
BRANCH   1   2
ATOM      2  CB  VAL A   1       0.710  -7.757 -13.205  0.00  0.00    +0.023 C 
ATOM      3  CG2 VAL A   1       2.007  -7.414 -13.945  0.00  0.00    +0.002 C 
ATOM      4  CG1 VAL A   1      -0.469  -7.380 -14.086  0.00  0.00    +0.002 C 
ENDBRANCH   1   2
BRANCH   1   5
ATOM      5  N   VAL A   1       1.690  -7.407 -10.902  0.00  0.00    -0.239 NA
ATOM      6  H   VAL A   1       2.349  -8.167 -11.164  0.00  0.00    +0.142 HD
ENDBRANCH   1   5
BRANCH   1   7
ATOM      7  C   VAL A   1      -0.731  -7.157 -11.204  0.00  0.00    +0.224 C 
ATOM      8  O   VAL A   1      -1.547  -6.229 -11.248  0.00  0.00    -0.287 OA
ENDBRANCH   1   7
TORSDOF 3
REMARK  Name = ../refined-set-2016/4ca6/4ca6_pocket.pdb
REMARK  298 active torsions:
REMARK  status: ('A' for Active; 'I' for Inactive)
REMARK    1  A    between atoms: _1  and  _3
REMARK    2  A    between atoms: _3  and  _4
REMARK    3  A    between atoms: _3  and  _6
REMARK    4  A    between atoms: _6  and  _7
REMARK    5  A    between atoms: _10  and  _12
REMARK    6  A    between atoms: _12  and  _13
REMARK    7  A    between atoms: _12  and  _15
REMARK    8  A    between atoms: _15  and  _16
REMARK    9  A    between atoms: _18  and  _20
REMARK   10  A    between atoms: _20  and  _21
REMARK   11  A    between atoms: _20  and  _23
REMARK   12  A    between atoms: _23  and  _24
REMARK   13  A    between atoms: _29  and  _30
REMARK   14  A    between atoms: _32  and  _34
REMARK   15  A    between atoms: _34  and  _35
REMARK   16  A    between atoms: _34  and  _37
REMARK   17  A    between atoms: _37  and  _38
REMARK   18  A    between atoms: _48  and  _50
REMARK   19  A    between atoms: _50  and  _51
REMARK   20  A    between atoms: _50  and  _53
REMARK   21  A    between atoms: _53  and  _54
REMARK   22  A    between atoms: _57  and  _59
REMARK   23  A    between atoms: _59  and  _60
REMARK   24  A    between atoms: _59  and  _62
REMARK   25  A    between atoms: _62  and  _63
REMARK   26  A    between atoms: _73  and  _75
REMARK   27  A    between atoms: _75  and  _76
REMARK   28  A    between atoms: _75  and  _78
REMARK   29  A    between atoms: _78  and  _79
REMARK   30  A    between atoms: _79  and  _80
REMARK   31  A    between atoms: _85  and  _87
REMARK   32  A    between atoms: _87  and  _88
REMARK   33  A    between atoms: _87  and  _90
REMARK   34  A    between atoms: _90  and  _91
REMARK   35  A    between atoms: _93  and  _95
REMARK   36  A    between atoms: _95  and  _96
REMARK   37  A    between atoms: _95  and  _98
REMARK   38  A    between atoms: _98  and  _99
REMARK   39  A    between atoms: _99  and  _100
REMARK   40  A    between atoms: _103  and  _105
REMARK   41  A    between atoms: _105  and  _106
REMARK   42  A    between atoms: _105  and  _108
REMARK   43  A    between atoms: _111  and  _113
REMARK   44  A    between atoms: _113  and  _114
REMARK   45  A    between atoms: _113  and  _116
REMARK   46  A    between atoms: _118  and  _120
REMARK   47  A    between atoms: _120  and  _121
REMARK   48  A    between atoms: _120  and  _123
REMARK   49  A    between atoms: _123  and  _124
REMARK   50  A    between atoms: _129  and  _131
REMARK   51  A    between atoms: _131  and  _132
REMARK   52  A    between atoms: _135  and  _137
REMARK   53  A    between atoms: _137  and  _138
REMARK   54  A    between atoms: _137  and  _140
REMARK   55  A    between atoms: _140  and  _141
REMARK   56  A    between atoms: _143  and  _145
REMARK   57  A    between atoms: _145  and  _146
REMARK   58  A    between atoms: _149  and  _151
REMARK   59  A    between atoms: _151  and  _152
REMARK   60  A    between atoms: _151  and  _154
REMARK   61  A    between atoms: _154  and  _155
REMARK   62  A    between atoms: _165  and  _167
REMARK   63  A    between atoms: _167  and  _168
REMARK   64  A    between atoms: _167  and  _170
REMARK   65  A    between atoms: _170  and  _171
REMARK   66  A    between atoms: _174  and  _176
REMARK   67  A    between atoms: _176  and  _177
REMARK   68  A    between atoms: _176  and  _179
REMARK   69  A    between atoms: _179  and  _180
REMARK   70  A    between atoms: _185  and  _186
REMARK   71  A    between atoms: _188  and  _190
REMARK   72  A    between atoms: _190  and  _191
REMARK   73  A    between atoms: _190  and  _193
REMARK   74  A    between atoms: _193  and  _194
REMARK   75  A    between atoms: _194  and  _195
REMARK   76  A    between atoms: _195  and  _196
REMARK   77  A    between atoms: _205  and  _207
REMARK   78  A    between atoms: _207  and  _208
REMARK   79  A    between atoms: _207  and  _210
REMARK   80  A    between atoms: _210  and  _211
REMARK   81  A    between atoms: _214  and  _216
REMARK   82  A    between atoms: _216  and  _217
REMARK   83  A    between atoms: _216  and  _219
REMARK   84  A    between atoms: _219  and  _220
REMARK   85  A    between atoms: _220  and  _221
REMARK   86  A    between atoms: _221  and  _222
REMARK   87  A    between atoms: _222  and  _223
REMARK   88  A    between atoms: _227  and  _229
REMARK   89  A    between atoms: _229  and  _230
REMARK   90  A    between atoms: _229  and  _232
REMARK   91  A    between atoms: _232  and  _233
REMARK   92  A    between atoms: _233  and  _234
REMARK   93  A    between atoms: _239  and  _241
REMARK   94  A    between atoms: _241  and  _242
REMARK   95  A    between atoms: _241  and  _244
REMARK   96  A    between atoms: _244  and  _245
REMARK   97  A    between atoms: _245  and  _246
REMARK   98  A    between atoms: _246  and  _247
REMARK   99  A    between atoms: _256  and  _258
REMARK  100  A    between atoms: _258  and  _259
REMARK  101  A    between atoms: _258  and  _261
REMARK  102  A    between atoms: _261  and  _262
REMARK  103  A    between atoms: _262  and  _263
REMARK  104  A    between atoms: _265  and  _267
REMARK  105  A    between atoms: _267  and  _268
REMARK  106  A    between atoms: _267  and  _270
REMARK  107  A    between atoms: _270  and  _271
REMARK  108  A    between atoms: _274  and  _276
REMARK  109  A    between atoms: _276  and  _277
REMARK  110  A    between atoms: _276  and  _279
REMARK  111  A    between atoms: _279  and  _280
REMARK  112  A    between atoms: _280  and  _281
REMARK  113  A    between atoms: _286  and  _288
REMARK  114  A    between atoms: _288  and  _289
REMARK  115  A    between atoms: _288  and  _291
REMARK  116  A    between atoms: _291  and  _292
REMARK  117  A    between atoms: _295  and  _297
REMARK  118  A    between atoms: _297  and  _298
REMARK  119  A    between atoms: _297  and  _300
REMARK  120  A    between atoms: _300  and  _301
REMARK  121  A    between atoms: _303  and  _305
REMARK  122  A    between atoms: _305  and  _306
REMARK  123  A    between atoms: _305  and  _308
REMARK  124  A    between atoms: _308  and  _309
REMARK  125  A    between atoms: _312  and  _314
REMARK  126  A    between atoms: _314  and  _315
REMARK  127  A    between atoms: _314  and  _317
REMARK  128  A    between atoms: _320  and  _322
REMARK  129  A    between atoms: _322  and  _323
REMARK  130  A    between atoms: _322  and  _325
REMARK  131  A    between atoms: _325  and  _326
REMARK  132  A    between atoms: _331  and  _333
REMARK  133  A    between atoms: _344  and  _347
REMARK  134  A    between atoms: _347  and  _348
REMARK  135  A    between atoms: _348  and  _349
REMARK  136  A    between atoms: _354  and  _357
REMARK  137  A    between atoms: _357  and  _358
REMARK  138  A    between atoms: _358  and  _359
REMARK  139  A    between atoms: _368  and  _369
REMARK  140  A    between atoms: _377  and  _379
REMARK  141  A    between atoms: _379  and  _380
REMARK  142  A    between atoms: _379  and  _382
REMARK  143  A    between atoms: _382  and  _383
REMARK  144  A    between atoms: _386  and  _388
REMARK  145  A    between atoms: _388  and  _389
REMARK  146  A    between atoms: _388  and  _391
REMARK  147  A    between atoms: _391  and  _392
REMARK  148  A    between atoms: _397  and  _398
REMARK  149  A    between atoms: _400  and  _402
REMARK  150  A    between atoms: _402  and  _403
REMARK  151  A    between atoms: _402  and  _405
REMARK  152  A    between atoms: _405  and  _406
REMARK  153  A    between atoms: _411  and  _412
REMARK  154  A    between atoms: _414  and  _416
REMARK  155  A    between atoms: _416  and  _417
REMARK  156  A    between atoms: _416  and  _419
REMARK  157  A    between atoms: _419  and  _420
REMARK  158  A    between atoms: _425  and  _426
REMARK  159  A    between atoms: _428  and  _430
REMARK  160  A    between atoms: _430  and  _431
REMARK  161  A    between atoms: _430  and  _433
REMARK  162  A    between atoms: _433  and  _434
REMARK  163  A    between atoms: _434  and  _435
REMARK  164  A    between atoms: _435  and  _436
REMARK  165  A    between atoms: _445  and  _447
REMARK  166  A    between atoms: _447  and  _448
REMARK  167  A    between atoms: _447  and  _450
REMARK  168  A    between atoms: _450  and  _451
REMARK  169  A    between atoms: _451  and  _452
REMARK  170  A    between atoms: _452  and  _453
REMARK  171  A    between atoms: _462  and  _464
REMARK  172  A    between atoms: _464  and  _465
REMARK  173  A    between atoms: _467  and  _469
REMARK  174  A    between atoms: _469  and  _470
REMARK  175  A    between atoms: _473  and  _475
REMARK  176  A    between atoms: _475  and  _476
REMARK  177  A    between atoms: _475  and  _478
REMARK  178  A    between atoms: _478  and  _479
REMARK  179  A    between atoms: _485  and  _486
REMARK  180  A    between atoms: _491  and  _493
REMARK  181  A    between atoms: _493  and  _494
REMARK  182  A    between atoms: _496  and  _498
REMARK  183  A    between atoms: _498  and  _499
REMARK  184  A    between atoms: _498  and  _501
REMARK  185  A    between atoms: _501  and  _502
REMARK  186  A    between atoms: _508  and  _510
REMARK  187  A    between atoms: _510  and  _511
REMARK  188  A    between atoms: _510  and  _513
REMARK  189  A    between atoms: _513  and  _514
REMARK  190  A    between atoms: _519  and  _521
REMARK  191  A    between atoms: _521  and  _522
REMARK  192  A    between atoms: _521  and  _524
REMARK  193  A    between atoms: _524  and  _525
REMARK  194  A    between atoms: _525  and  _526
REMARK  195  A    between atoms: _526  and  _527
REMARK  196  A    between atoms: _527  and  ZN_792
REMARK  197  A    between atoms: _529  and  _531
REMARK  198  A    between atoms: _531  and  _532
REMARK  199  A    between atoms: _535  and  _537
REMARK  200  A    between atoms: _537  and  _538
REMARK  201  A    between atoms: _540  and  _542
REMARK  202  A    between atoms: _542  and  _543
REMARK  203  A    between atoms: _542  and  _545
REMARK  204  A    between atoms: _545  and  _546
REMARK  205  A    between atoms: _549  and  _551
REMARK  206  A    between atoms: _551  and  _552
REMARK  207  A    between atoms: _551  and  _554
REMARK  208  A    between atoms: _557  and  _559
REMARK  209  A    between atoms: _559  and  _560
REMARK  210  A    between atoms: _563  and  _565
REMARK  211  A    between atoms: _565  and  _566
REMARK  212  A    between atoms: _565  and  _568
REMARK  213  A    between atoms: _568  and  _569
REMARK  214  A    between atoms: _572  and  _574
REMARK  215  A    between atoms: _574  and  _575
REMARK  216  A    between atoms: _574  and  _577
REMARK  217  A    between atoms: _577  and  _578
REMARK  218  A    between atoms: _578  and  _579
REMARK  219  A    between atoms: _582  and  _584
REMARK  220  A    between atoms: _584  and  _585
REMARK  221  A    between atoms: _584  and  _587
REMARK  222  A    between atoms: _587  and  _588
REMARK  223  A    between atoms: _588  and  _589
REMARK  224  A    between atoms: _589  and  _590
REMARK  225  A    between atoms: _590  and  _591
REMARK  226  A    between atoms: _595  and  _597
REMARK  227  A    between atoms: _597  and  _598
REMARK  228  A    between atoms: _597  and  _600
REMARK  229  A    between atoms: _600  and  _601
REMARK  230  A    between atoms: _607  and  _609
REMARK  231  A    between atoms: _609  and  _610
REMARK  232  A    between atoms: _609  and  _612
REMARK  233  A    between atoms: _612  and  _613
REMARK  234  A    between atoms: _619  and  _621
REMARK  235  A    between atoms: _621  and  _622
REMARK  236  A    between atoms: _624  and  _626
REMARK  237  A    between atoms: _626  and  _627
REMARK  238  A    between atoms: _626  and  _629
REMARK  239  A    between atoms: _632  and  _634
REMARK  240  A    between atoms: _634  and  _635
REMARK  241  A    between atoms: _634  and  _637
REMARK  242  A    between atoms: _637  and  _638
REMARK  243  A    between atoms: _638  and  _639
REMARK  244  A    between atoms: _639  and  _640
REMARK  245  A    between atoms: _640  and  _641
REMARK  246  A    between atoms: _645  and  _647
REMARK  247  A    between atoms: _647  and  _648
REMARK  248  A    between atoms: _647  and  _650
REMARK  249  A    between atoms: _650  and  _651
REMARK  250  A    between atoms: _657  and  _659
REMARK  251  A    between atoms: _659  and  _660
REMARK  252  A    between atoms: _659  and  _662
REMARK  253  A    between atoms: _662  and  _663
REMARK  254  A    between atoms: _668  and  _670
REMARK  255  A    between atoms: _670  and  _671
REMARK  256  A    between atoms: _670  and  _673
REMARK  257  A    between atoms: _673  and  _674
REMARK  258  A    between atoms: _679  and  _681
REMARK  259  A    between atoms: _681  and  _682
REMARK  260  A    between atoms: _681  and  _684
REMARK  261  A    between atoms: _687  and  _689
REMARK  262  A    between atoms: _689  and  _690
REMARK  263  A    between atoms: _689  and  _692
REMARK  264  A    between atoms: _692  and  _693
REMARK  265  A    between atoms: _697  and  _698
REMARK  266  A    between atoms: _703  and  _705
REMARK  267  A    between atoms: _705  and  _706
REMARK  268  A    between atoms: _705  and  _708
REMARK  269  A    between atoms: _708  and  _709
REMARK  270  A    between atoms: _714  and  _715
REMARK  271  A    between atoms: _717  and  _719
REMARK  272  A    between atoms: _719  and  _720
REMARK  273  A    between atoms: _719  and  _722
REMARK  274  A    between atoms: _722  and  _723
REMARK  275  A    between atoms: _723  and  _724
REMARK  276  A    between atoms: _724  and  _725
REMARK  277  A    between atoms: _734  and  _736
REMARK  278  A    between atoms: _736  and  _737
REMARK  279  A    between atoms: _736  and  _739
REMARK  280  A    between atoms: _739  and  _740
REMARK  281  A    between atoms: _745  and  _746
REMARK  282  A    between atoms: _748  and  _750
REMARK  283  A    between atoms: _750  and  _751
REMARK  284  A    between atoms: _750  and  _753
REMARK  285  A    between atoms: _753  and  _754
REMARK  286  A    between atoms: _760  and  _762
REMARK  287  A    between atoms: _762  and  _763
REMARK  288  A    between atoms: _762  and  _765
REMARK  289  A    between atoms: _765  and  _766
REMARK  290  A    between atoms: _768  and  _770
REMARK  291  A    between atoms: _770  and  _771
REMARK  292  A    between atoms: _770  and  _773
REMARK  293  A    between atoms: _773  and  _774
REMARK  294  A    between atoms: _780  and  _782
REMARK  295  A    between atoms: _782  and  _783
REMARK  296  A    between atoms: _782  and  _785
REMARK  297  A    between atoms: _785  and  _786
REMARK  298  A    between atoms: _786  and  _787
REMARK                            x       y       z     vdW  Elec       q    Type
REMARK                         _______ _______ _______ _____ _____    ______ ____
ROOT
ATOM      1  CA  PHE A   2      -1.562  -7.158 -22.881  0.00  0.00    +0.153 C 
ENDROOT
BRANCH   1   4
ATOM      2  C   LYS A   1      -0.657  -5.418 -21.362  0.00  0.00    +0.238 C 
ATOM      3  O   LYS A   1      -1.748  -5.204 -20.817  0.00  0.00    -0.274 OA
ATOM      4  N   PHE A   2      -0.463  -6.370 -22.274  0.00  0.00    -0.297 N 
ATOM      5  H   PHE A   2       0.512  -6.571 -22.576  0.00  0.00    +0.150 HD
BRANCH   2   6
ATOM      6  CA  LYS A   1       0.577  -4.606 -20.951  0.00  0.00    +0.145 C 
BRANCH   6   7
ATOM      7  N   LYS A   1       0.277  -3.193 -21.103  0.00  0.00    -0.238 NA
ATOM      8  H   LYS A   1      -0.387  -2.757 -20.432  0.00  0.00    +0.142 HD
ENDBRANCH   6   7
BRANCH   6   9
ATOM      9  CB  LYS A   1       0.953  -4.910 -19.497  0.00  0.00    +0.026 C 
BRANCH   9  10
ATOM     10  CG  LYS A   1       1.217  -6.384 -19.200  0.00  0.00    -0.000 C 
BRANCH  10  11
ATOM     11  CD  LYS A   1       2.526  -6.882 -19.823  0.00  0.00    -0.024 C 
BRANCH  11  12
ATOM     12  CE  LYS A   1       2.629  -8.401 -19.670  0.00  0.00    -0.086 C 
BRANCH  12  13
ATOM     13  NZ  LYS A   1       3.546  -9.010 -20.672  0.00  0.00    +0.380 N 
ATOM     14  HZ1 LYS A   1       3.582 -10.039 -20.527  0.00  0.00    -0.089 HD
ATOM     15  HZ2 LYS A   1       4.499  -8.609 -20.557  0.00  0.00    -0.089 HD
ATOM     16  HZ3 LYS A   1       3.196  -8.806 -21.630  0.00  0.00    -0.089 HD
ENDBRANCH  12  13
ENDBRANCH  11  12
ENDBRANCH  10  11
ENDBRANCH   9  10
ENDBRANCH   6   9
ENDBRANCH   2   6
ENDBRANCH   1   4
BRANCH   1  17
ATOM     17  C   PHE A   2      -2.706  -7.550 -21.961  0.00  0.00    +0.241 C 
ATOM     18  N   HIS A   3      -2.347  -8.158 -20.844  0.00  0.00    -0.298 N 
ATOM     19  H   HIS A   3      -1.348  -8.125 -20.557  0.00  0.00    +0.150 HD
ATOM     20  O   PHE A   2      -3.878  -7.350 -22.283  0.00  0.00    -0.273 OA
BRANCH  18  21
ATOM     21  CA  HIS A   3      -3.291  -8.871 -20.001  0.00  0.00    +0.143 C 
BRANCH  21  22
ATOM     22  C   HIS A   3      -4.282  -7.941 -19.317  0.00  0.00    +0.227 C 
ATOM     23  O   HIS A   3      -5.359  -8.369 -18.928  0.00  0.00    -0.286 OA
ENDBRANCH  21  22
BRANCH  21  24
ATOM     24  CB  HIS A   3      -2.523  -9.686 -18.961  0.00  0.00    +0.075 C 
BRANCH  24  25
ATOM     25  CG  HIS A   3      -1.570 -10.668 -19.565  0.00  0.00    +0.082 A 
ATOM     26  ND1 HIS A   3      -1.810 -12.028 -19.579  0.00  0.00    -0.227 NA
ATOM     27  CE1 HIS A   3      -0.813 -12.639 -20.193  0.00  0.00    +0.199 A 
ATOM     28  NE2 HIS A   3       0.065 -11.727 -20.570  0.00  0.00    -0.221 NA
ATOM     29  CD2 HIS A   3      -0.394 -10.485 -20.201  0.00  0.00    +0.115 A 
ENDBRANCH  24  25
ENDBRANCH  21  24
ENDBRANCH  18  21
ENDBRANCH   1  17
BRANCH   1  30
ATOM     30  CB  PHE A   2      -1.020  -8.430 -23.546  0.00  0.00    +0.055 C 
BRANCH  30  31
ATOM     31  CG  PHE A   2      -2.100  -9.333 -24.091  0.00  0.00    -0.020 A 
ATOM     32  CD2 PHE A   2      -2.626 -10.359 -23.311  0.00  0.00    -0.004 A 
ATOM     33  CE2 PHE A   2      -3.635 -11.182 -23.808  0.00  0.00    -0.000 A 
ATOM     34  CZ  PHE A   2      -4.121 -10.973 -25.088  0.00  0.00    -0.000 A 
ATOM     35  CE1 PHE A   2      -3.599  -9.963 -25.882  0.00  0.00    -0.000 A 
ATOM     36  CD1 PHE A   2      -2.603  -9.141 -25.376  0.00  0.00    -0.004 A 
ENDBRANCH  30  31
ENDBRANCH   1  30
TORSDOF 15
REMARK  Name = ../refined-set-2016/4ca6/4ca6_pocket.pdb
REMARK  298 active torsions:
REMARK  status: ('A' for Active; 'I' for Inactive)
REMARK    1  A    between atoms: _1  and  _3
REMARK    2  A    between atoms: _3  and  _4
REMARK    3  A    between atoms: _3  and  _6
REMARK    4  A    between atoms: _6  and  _7
REMARK    5  A    between atoms: _10  and  _12
REMARK    6  A    between atoms: _12  and  _13
REMARK    7  A    between atoms: _12  and  _15
REMARK    8  A    between atoms: _15  and  _16
REMARK    9  A    between atoms: _18  and  _20
REMARK   10  A    between atoms: _20  and  _21
REMARK   11  A    between atoms: _20  and  _23
REMARK   12  A    between atoms: _23  and  _24
REMARK   13  A    between atoms: _29  and  _30
REMARK   14  A    between atoms: _32  and  _34
REMARK   15  A    between atoms: _34  and  _35
REMARK   16  A    between atoms: _34  and  _37
REMARK   17  A    between atoms: _37  and  _38
REMARK   18  A    between atoms: _48  and  _50
REMARK   19  A    between atoms: _50  and  _51
REMARK   20  A    between atoms: _50  and  _53
REMARK   21  A    between atoms: _53  and  _54
REMARK   22  A    between atoms: _57  and  _59
REMARK   23  A    between atoms: _59  and  _60
REMARK   24  A    between atoms: _59  and  _62
REMARK   25  A    between atoms: _62  and  _63
REMARK   26  A    between atoms: _73  and  _75
REMARK   27  A    between atoms: _75  and  _76
REMARK   28  A    between atoms: _75  and  _78
REMARK   29  A    between atoms: _78  and  _79
REMARK   30  A    between atoms: _79  and  _80
REMARK   31  A    between atoms: _85  and  _87
REMARK   32  A    between atoms: _87  and  _88
REMARK   33  A    between atoms: _87  and  _90
REMARK   34  A    between atoms: _90  and  _91
REMARK   35  A    between atoms: _93  and  _95
REMARK   36  A    between atoms: _95  and  _96
REMARK   37  A    between atoms: _95  and  _98
REMARK   38  A    between atoms: _98  and  _99
REMARK   39  A    between atoms: _99  and  _100
REMARK   40  A    between atoms: _103  and  _105
REMARK   41  A    between atoms: _105  and  _106
REMARK   42  A    between atoms: _105  and  _108
REMARK   43  A    between atoms: _111  and  _113
REMARK   44  A    between atoms: _113  and  _114
REMARK   45  A    between atoms: _113  and  _116
REMARK   46  A    between atoms: _118  and  _120
REMARK   47  A    between atoms: _120  and  _121
REMARK   48  A    between atoms: _120  and  _123
REMARK   49  A    between atoms: _123  and  _124
REMARK   50  A    between atoms: _129  and  _131
REMARK   51  A    between atoms: _131  and  _132
REMARK   52  A    between atoms: _135  and  _137
REMARK   53  A    between atoms: _137  and  _138
REMARK   54  A    between atoms: _137  and  _140
REMARK   55  A    between atoms: _140  and  _141
REMARK   56  A    between atoms: _143  and  _145
REMARK   57  A    between atoms: _145  and  _146
REMARK   58  A    between atoms: _149  and  _151
REMARK   59  A    between atoms: _151  and  _152
REMARK   60  A    between atoms: _151  and  _154
REMARK   61  A    between atoms: _154  and  _155
REMARK   62  A    between atoms: _165  and  _167
REMARK   63  A    between atoms: _167  and  _168
REMARK   64  A    between atoms: _167  and  _170
REMARK   65  A    between atoms: _170  and  _171
REMARK   66  A    between atoms: _174  and  _176
REMARK   67  A    between atoms: _176  and  _177
REMARK   68  A    between atoms: _176  and  _179
REMARK   69  A    between atoms: _179  and  _180
REMARK   70  A    between atoms: _185  and  _186
REMARK   71  A    between atoms: _188  and  _190
REMARK   72  A    between atoms: _190  and  _191
REMARK   73  A    between atoms: _190  and  _193
REMARK   74  A    between atoms: _193  and  _194
REMARK   75  A    between atoms: _194  and  _195
REMARK   76  A    between atoms: _195  and  _196
REMARK   77  A    between atoms: _205  and  _207
REMARK   78  A    between atoms: _207  and  _208
REMARK   79  A    between atoms: _207  and  _210
REMARK   80  A    between atoms: _210  and  _211
REMARK   81  A    between atoms: _214  and  _216
REMARK   82  A    between atoms: _216  and  _217
REMARK   83  A    between atoms: _216  and  _219
REMARK   84  A    between atoms: _219  and  _220
REMARK   85  A    between atoms: _220  and  _221
REMARK   86  A    between atoms: _221  and  _222
REMARK   87  A    between atoms: _222  and  _223
REMARK   88  A    between atoms: _227  and  _229
REMARK   89  A    between atoms: _229  and  _230
REMARK   90  A    between atoms: _229  and  _232
REMARK   91  A    between atoms: _232  and  _233
REMARK   92  A    between atoms: _233  and  _234
REMARK   93  A    between atoms: _239  and  _241
REMARK   94  A    between atoms: _241  and  _242
REMARK   95  A    between atoms: _241  and  _244
REMARK   96  A    between atoms: _244  and  _245
REMARK   97  A    between atoms: _245  and  _246
REMARK   98  A    between atoms: _246  and  _247
REMARK   99  A    between atoms: _256  and  _258
REMARK  100  A    between atoms: _258  and  _259
REMARK  101  A    between atoms: _258  and  _261
REMARK  102  A    between atoms: _261  and  _262
REMARK  103  A    between atoms: _262  and  _263
REMARK  104  A    between atoms: _265  and  _267
REMARK  105  A    between atoms: _267  and  _268
REMARK  106  A    between atoms: _267  and  _270
REMARK  107  A    between atoms: _270  and  _271
REMARK  108  A    between atoms: _274  and  _276
REMARK  109  A    between atoms: _276  and  _277
REMARK  110  A    between atoms: _276  and  _279
REMARK  111  A    between atoms: _279  and  _280
REMARK  112  A    between atoms: _280  and  _281
REMARK  113  A    between atoms: _286  and  _288
REMARK  114  A    between atoms: _288  and  _289
REMARK  115  A    between atoms: _288  and  _291
REMARK  116  A    between atoms: _291  and  _292
REMARK  117  A    between atoms: _295  and  _297
REMARK  118  A    between atoms: _297  and  _298
REMARK  119  A    between atoms: _297  and  _300
REMARK  120  A    between atoms: _300  and  _301
REMARK  121  A    between atoms: _303  and  _305
REMARK  122  A    between atoms: _305  and  _306
REMARK  123  A    between atoms: _305  and  _308
REMARK  124  A    between atoms: _308  and  _309
REMARK  125  A    between atoms: _312  and  _314
REMARK  126  A    between atoms: _314  and  _315
REMARK  127  A    between atoms: _314  and  _317
REMARK  128  A    between atoms: _320  and  _322
REMARK  129  A    between atoms: _322  and  _323
REMARK  130  A    between atoms: _322  and  _325
REMARK  131  A    between atoms: _325  and  _326
REMARK  132  A    between atoms: _331  and  _333
REMARK  133  A    between atoms: _344  and  _347
REMARK  134  A    between atoms: _347  and  _348
REMARK  135  A    between atoms: _348  and  _349
REMARK  136  A    between atoms: _354  and  _357
REMARK  137  A    between atoms: _357  and  _358
REMARK  138  A    between atoms: _358  and  _359
REMARK  139  A    between atoms: _368  and  _369
REMARK  140  A    between atoms: _377  and  _379
REMARK  141  A    between atoms: _379  and  _380
REMARK  142  A    between atoms: _379  and  _382
REMARK  143  A    between atoms: _382  and  _383
REMARK  144  A    between atoms: _386  and  _388
REMARK  145  A    between atoms: _388  and  _389
REMARK  146  A    between atoms: _388  and  _391
REMARK  147  A    between atoms: _391  and  _392
REMARK  148  A    between atoms: _397  and  _398
REMARK  149  A    between atoms: _400  and  _402
REMARK  150  A    between atoms: _402  and  _403
REMARK  151  A    between atoms: _402  and  _405
REMARK  152  A    between atoms: _405  and  _406
REMARK  153  A    between atoms: _411  and  _412
REMARK  154  A    between atoms: _414  and  _416
REMARK  155  A    between atoms: _416  and  _417
REMARK  156  A    between atoms: _416  and  _419
REMARK  157  A    between atoms: _419  and  _420
REMARK  158  A    between atoms: _425  and  _426
REMARK  159  A    between atoms: _428  and  _430
REMARK  160  A    between atoms: _430  and  _431
REMARK  161  A    between atoms: _430  and  _433
REMARK  162  A    between atoms: _433  and  _434
REMARK  163  A    between atoms: _434  and  _435
REMARK  164  A    between atoms: _435  and  _436
REMARK  165  A    between atoms: _445  and  _447
REMARK  166  A    between atoms: _447  and  _448
REMARK  167  A    between atoms: _447  and  _450
REMARK  168  A    between atoms: _450  and  _451
REMARK  169  A    between atoms: _451  and  _452
REMARK  170  A    between atoms: _452  and  _453
REMARK  171  A    between atoms: _462  and  _464
REMARK  172  A    between atoms: _464  and  _465
REMARK  173  A    between atoms: _467  and  _469
REMARK  174  A    between atoms: _469  and  _470
REMARK  175  A    between atoms: _473  and  _475
REMARK  176  A    between atoms: _475  and  _476
REMARK  177  A    between atoms: _475  and  _478
REMARK  178  A    between atoms: _478  and  _479
REMARK  179  A    between atoms: _485  and  _486
REMARK  180  A    between atoms: _491  and  _493
REMARK  181  A    between atoms: _493  and  _494
REMARK  182  A    between atoms: _496  and  _498
REMARK  183  A    between atoms: _498  and  _499
REMARK  184  A    between atoms: _498  and  _501
REMARK  185  A    between atoms: _501  and  _502
REMARK  186  A    between atoms: _508  and  _510
REMARK  187  A    between atoms: _510  and  _511
REMARK  188  A    between atoms: _510  and  _513
REMARK  189  A    between atoms: _513  and  _514
REMARK  190  A    between atoms: _519  and  _521
REMARK  191  A    between atoms: _521  and  _522
REMARK  192  A    between atoms: _521  and  _524
REMARK  193  A    between atoms: _524  and  _525
REMARK  194  A    between atoms: _525  and  _526
REMARK  195  A    between atoms: _526  and  _527
REMARK  196  A    between atoms: _527  and  ZN_792
REMARK  197  A    between atoms: _529  and  _531
REMARK  198  A    between atoms: _531  and  _532
REMARK  199  A    between atoms: _535  and  _537
REMARK  200  A    between atoms: _537  and  _538
REMARK  201  A    between atoms: _540  and  _542
REMARK  202  A    between atoms: _542  and  _543
REMARK  203  A    between atoms: _542  and  _545
REMARK  204  A    between atoms: _545  and  _546
REMARK  205  A    between atoms: _549  and  _551
REMARK  206  A    between atoms: _551  and  _552
REMARK  207  A    between atoms: _551  and  _554
REMARK  208  A    between atoms: _557  and  _559
REMARK  209  A    between atoms: _559  and  _560
REMARK  210  A    between atoms: _563  and  _565
REMARK  211  A    between atoms: _565  and  _566
REMARK  212  A    between atoms: _565  and  _568
REMARK  213  A    between atoms: _568  and  _569
REMARK  214  A    between atoms: _572  and  _574
REMARK  215  A    between atoms: _574  and  _575
REMARK  216  A    between atoms: _574  and  _577
REMARK  217  A    between atoms: _577  and  _578
REMARK  218  A    between atoms: _578  and  _579
REMARK  219  A    between atoms: _582  and  _584
REMARK  220  A    between atoms: _584  and  _585
REMARK  221  A    between atoms: _584  and  _587
REMARK  222  A    between atoms: _587  and  _588
REMARK  223  A    between atoms: _588  and  _589
REMARK  224  A    between atoms: _589  and  _590
REMARK  225  A    between atoms: _590  and  _591
REMARK  226  A    between atoms: _595  and  _597
REMARK  227  A    between atoms: _597  and  _598
REMARK  228  A    between atoms: _597  and  _600
REMARK  229  A    between atoms: _600  and  _601
REMARK  230  A    between atoms: _607  and  _609
REMARK  231  A    between atoms: _609  and  _610
REMARK  232  A    between atoms: _609  and  _612
REMARK  233  A    between atoms: _612  and  _613
REMARK  234  A    between atoms: _619  and  _621
REMARK  235  A    between atoms: _621  and  _622
REMARK  236  A    between atoms: _624  and  _626
REMARK  237  A    between atoms: _626  and  _627
REMARK  238  A    between atoms: _626  and  _629
REMARK  239  A    between atoms: _632  and  _634
REMARK  240  A    between atoms: _634  and  _635
REMARK  241  A    between atoms: _634  and  _637
REMARK  242  A    between atoms: _637  and  _638
REMARK  243  A    between atoms: _638  and  _639
REMARK  244  A    between atoms: _639  and  _640
REMARK  245  A    between atoms: _640  and  _641
REMARK  246  A    between atoms: _645  and  _647
REMARK  247  A    between atoms: _647  and  _648
REMARK  248  A    between atoms: _647  and  _650
REMARK  249  A    between atoms: _650  and  _651
REMARK  250  A    between atoms: _657  and  _659
REMARK  251  A    between atoms: _659  and  _660
REMARK  252  A    between atoms: _659  and  _662
REMARK  253  A    between atoms: _662  and  _663
REMARK  254  A    between atoms: _668  and  _670
REMARK  255  A    between atoms: _670  and  _671
REMARK  256  A    between atoms: _670  and  _673
REMARK  257  A    between atoms: _673  and  _674
REMARK  258  A    between atoms: _679  and  _681
REMARK  259  A    between atoms: _681  and  _682
REMARK  260  A    between atoms: _681  and  _684
REMARK  261  A    between atoms: _687  and  _689
REMARK  262  A    between atoms: _689  and  _690
REMARK  263  A    between atoms: _689  and  _692
REMARK  264  A    between atoms: _692  and  _693
REMARK  265  A    between atoms: _697  and  _698
REMARK  266  A    between atoms: _703  and  _705
REMARK  267  A    between atoms: _705  and  _706
REMARK  268  A    between atoms: _705  and  _708
REMARK  269  A    between atoms: _708  and  _709
REMARK  270  A    between atoms: _714  and  _715
REMARK  271  A    between atoms: _717  and  _719
REMARK  272  A    between atoms: _719  and  _720
REMARK  273  A    between atoms: _719  and  _722
REMARK  274  A    between atoms: _722  and  _723
REMARK  275  A    between atoms: _723  and  _724
REMARK  276  A    between atoms: _724  and  _725
REMARK  277  A    between atoms: _734  and  _736
REMARK  278  A    between atoms: _736  and  _737
REMARK  279  A    between atoms: _736  and  _739
REMARK  280  A    between atoms: _739  and  _740
REMARK  281  A    between atoms: _745  and  _746
REMARK  282  A    between atoms: _748  and  _750
REMARK  283  A    between atoms: _750  and  _751
REMARK  284  A    between atoms: _750  and  _753
REMARK  285  A    between atoms: _753  and  _754
REMARK  286  A    between atoms: _760  and  _762
REMARK  287  A    between atoms: _762  and  _763
REMARK  288  A    between atoms: _762  and  _765
REMARK  289  A    between atoms: _765  and  _766
REMARK  290  A    between atoms: _768  and  _770
REMARK  291  A    between atoms: _770  and  _771
REMARK  292  A    between atoms: _770  and  _773
REMARK  293  A    between atoms: _773  and  _774
REMARK  294  A    between atoms: _780  and  _782
REMARK  295  A    between atoms: _782  and  _783
REMARK  296  A    between atoms: _782  and  _785
REMARK  297  A    between atoms: _785  and  _786
REMARK  298  A    between atoms: _786  and  _787
REMARK                            x       y       z     vdW  Elec       q    Type
REMARK                         _______ _______ _______ _____ _____    ______ ____
ROOT
ATOM      1  CA  THR A   3      -7.075 -11.945 -17.979  0.00  0.00    +0.176 C 
ENDROOT
BRANCH   1   2
ATOM      2  C   THR A   3      -6.006 -11.883 -16.878  0.00  0.00    +0.246 C 
ATOM      3  N   PRO A   4      -6.130 -12.748 -15.849  0.00  0.00    -0.272 N 
ATOM      4  CA  PRO A   4      -5.338 -12.634 -14.618  0.00  0.00    +0.152 C 
ATOM      5  CB  PRO A   4      -5.988 -13.647 -13.668  0.00  0.00    +0.031 C 
ATOM      6  CG  PRO A   4      -7.351 -13.917 -14.249  0.00  0.00    +0.024 C 
ATOM      7  CD  PRO A   4      -7.172 -13.789 -15.735  0.00  0.00    +0.094 C 
ATOM      8  O   THR A   3      -5.122 -11.024 -16.931  0.00  0.00    -0.273 OA
BRANCH   4   9
ATOM      9  C   PRO A   4      -3.856 -12.940 -14.813  0.00  0.00    +0.241 C 
ATOM     10  N   TYR A   5      -3.037 -12.385 -13.919  0.00  0.00    -0.298 N 
ATOM     11  H   TYR A   5      -3.446 -11.864 -13.117  0.00  0.00    +0.150 HD
ATOM     12  O   PRO A   4      -3.469 -13.617 -15.787  0.00  0.00    -0.273 OA
BRANCH  10  13
ATOM     13  CA  TYR A   5      -1.592 -12.485 -14.030  0.00  0.00    +0.141 C 
BRANCH  13  14
ATOM     14  C   TYR A   5      -0.922 -13.364 -12.971  0.00  0.00    +0.227 C 
ATOM     15  O   TYR A   5       0.157 -13.909 -13.226  0.00  0.00    -0.286 OA
ENDBRANCH  13  14
BRANCH  13  16
ATOM     16  CB  TYR A   5      -0.941 -11.078 -14.032  0.00  0.00    +0.054 C 
BRANCH  16  17
ATOM     17  CG  TYR A   5       0.258 -11.040 -14.945  0.00  0.00    -0.020 A 
ATOM     18  CD2 TYR A   5       1.563 -11.043 -14.426  0.00  0.00    -0.001 A 
ATOM     19  CE2 TYR A   5       2.667 -11.031 -15.281  0.00  0.00    +0.036 A 
ATOM     20  CZ  TYR A   5       2.470 -11.020 -16.651  0.00  0.00    +0.134 A 
ATOM     21  CE1 TYR A   5       1.183 -11.013 -17.192  0.00  0.00    +0.036 A 
ATOM     22  CD1 TYR A   5       0.091 -11.022 -16.333  0.00  0.00    -0.001 A 
BRANCH  20  23
ATOM     23  OH  TYR A   5       3.545 -11.013 -17.500  0.00  0.00    -0.506 OA
ATOM     24  HH  TYR A   5       3.224 -11.006 -18.437  0.00  0.00    +0.292 HD
ENDBRANCH  20  23
ENDBRANCH  16  17
ENDBRANCH  13  16
ENDBRANCH  10  13
ENDBRANCH   4   9
ENDBRANCH   1   2
BRANCH   1  27
ATOM     25  C   VAL A   2      -8.725 -10.194 -18.325  0.00  0.00    +0.241 C 
ATOM     26  O   VAL A   2      -9.672 -10.934 -18.027  0.00  0.00    -0.273 OA
ATOM     27  N   THR A   3      -7.457 -10.586 -18.307  0.00  0.00    -0.295 N 
ATOM     28  H   THR A   3      -6.714  -9.896 -18.536  0.00  0.00    +0.150 HD
BRANCH  25  29
ATOM     29  CA  VAL A   2      -8.941  -8.738 -18.721  0.00  0.00    +0.148 C 
BRANCH  29  31
ATOM     30  C   ASN A   1      -8.154  -9.027 -21.059  0.00  0.00    +0.239 C 
ATOM     31  N   VAL A   2      -8.213  -8.327 -19.928  0.00  0.00    -0.297 N 
ATOM     32  H   VAL A   2      -7.705  -7.420 -19.897  0.00  0.00    +0.150 HD
ATOM     33  O   ASN A   1      -8.518 -10.201 -21.161  0.00  0.00    -0.274 OA
BRANCH  30  34
ATOM     34  CA  ASN A   1      -7.582  -8.270 -22.254  0.00  0.00    +0.154 C 
BRANCH  34  35
ATOM     35  N   ASN A   1      -6.975  -6.967 -21.913  0.00  0.00    -0.238 NA
ATOM     36  H   ASN A   1      -5.966  -6.917 -21.667  0.00  0.00    +0.142 HD
ENDBRANCH  34  35
BRANCH  34  37
ATOM     37  CB  ASN A   1      -6.617  -9.131 -23.073  0.00  0.00    +0.111 C 
BRANCH  37  38
ATOM     38  CG  ASN A   1      -6.437  -8.588 -24.472  0.00  0.00    +0.221 C 
ATOM     39  ND2 ASN A   1      -5.464  -7.699 -24.646  0.00  0.00    -0.329 N 
ATOM     40 HD21 ASN A   1      -4.835  -7.455 -23.855  0.00  0.00    +0.145 HD
ATOM     41 HD22 ASN A   1      -5.332  -7.247 -25.573  0.00  0.00    +0.145 HD
ATOM     42  OD1 ASN A   1      -7.213  -8.915 -25.376  0.00  0.00    -0.275 OA
ENDBRANCH  37  38
ENDBRANCH  34  37
ENDBRANCH  30  34
ENDBRANCH  29  31
BRANCH  29  43
ATOM     43  CB  VAL A   2     -10.441  -8.328 -18.772  0.00  0.00    +0.027 C 
ATOM     44  CG2 VAL A   2     -10.549  -6.851 -19.110  0.00  0.00    +0.002 C 
ATOM     45  CG1 VAL A   2     -11.242  -9.153 -19.773  0.00  0.00    +0.002 C 
ENDBRANCH  29  43
ENDBRANCH  25  29
ENDBRANCH   1  27
BRANCH   1  46
ATOM     46  CB  THR A   3      -6.662 -12.739 -19.256  0.00  0.00    +0.137 C 
ATOM     47  CG2 THR A   3      -5.468 -12.100 -19.976  0.00  0.00    +0.034 C 
BRANCH  46  48
ATOM     48  OG1 THR A   3      -6.376 -14.104 -18.926  0.00  0.00    -0.382 OA
ATOM     49  HG1 THR A   3      -7.182 -14.523 -18.532  0.00  0.00    +0.210 HD
ENDBRANCH  46  48
ENDBRANCH   1  46
TORSDOF 17
REMARK  Name = ../refined-set-2016/4ca6/4ca6_pocket.pdb
REMARK  298 active torsions:
REMARK  status: ('A' for Active; 'I' for Inactive)
REMARK    1  A    between atoms: _1  and  _3
REMARK    2  A    between atoms: _3  and  _4
REMARK    3  A    between atoms: _3  and  _6
REMARK    4  A    between atoms: _6  and  _7
REMARK    5  A    between atoms: _10  and  _12
REMARK    6  A    between atoms: _12  and  _13
REMARK    7  A    between atoms: _12  and  _15
REMARK    8  A    between atoms: _15  and  _16
REMARK    9  A    between atoms: _18  and  _20
REMARK   10  A    between atoms: _20  and  _21
REMARK   11  A    between atoms: _20  and  _23
REMARK   12  A    between atoms: _23  and  _24
REMARK   13  A    between atoms: _29  and  _30
REMARK   14  A    between atoms: _32  and  _34
REMARK   15  A    between atoms: _34  and  _35
REMARK   16  A    between atoms: _34  and  _37
REMARK   17  A    between atoms: _37  and  _38
REMARK   18  A    between atoms: _48  and  _50
REMARK   19  A    between atoms: _50  and  _51
REMARK   20  A    between atoms: _50  and  _53
REMARK   21  A    between atoms: _53  and  _54
REMARK   22  A    between atoms: _57  and  _59
REMARK   23  A    between atoms: _59  and  _60
REMARK   24  A    between atoms: _59  and  _62
REMARK   25  A    between atoms: _62  and  _63
REMARK   26  A    between atoms: _73  and  _75
REMARK   27  A    between atoms: _75  and  _76
REMARK   28  A    between atoms: _75  and  _78
REMARK   29  A    between atoms: _78  and  _79
REMARK   30  A    between atoms: _79  and  _80
REMARK   31  A    between atoms: _85  and  _87
REMARK   32  A    between atoms: _87  and  _88
REMARK   33  A    between atoms: _87  and  _90
REMARK   34  A    between atoms: _90  and  _91
REMARK   35  A    between atoms: _93  and  _95
REMARK   36  A    between atoms: _95  and  _96
REMARK   37  A    between atoms: _95  and  _98
REMARK   38  A    between atoms: _98  and  _99
REMARK   39  A    between atoms: _99  and  _100
REMARK   40  A    between atoms: _103  and  _105
REMARK   41  A    between atoms: _105  and  _106
REMARK   42  A    between atoms: _105  and  _108
REMARK   43  A    between atoms: _111  and  _113
REMARK   44  A    between atoms: _113  and  _114
REMARK   45  A    between atoms: _113  and  _116
REMARK   46  A    between atoms: _118  and  _120
REMARK   47  A    between atoms: _120  and  _121
REMARK   48  A    between atoms: _120  and  _123
REMARK   49  A    between atoms: _123  and  _124
REMARK   50  A    between atoms: _129  and  _131
REMARK   51  A    between atoms: _131  and  _132
REMARK   52  A    between atoms: _135  and  _137
REMARK   53  A    between atoms: _137  and  _138
REMARK   54  A    between atoms: _137  and  _140
REMARK   55  A    between atoms: _140  and  _141
REMARK   56  A    between atoms: _143  and  _145
REMARK   57  A    between atoms: _145  and  _146
REMARK   58  A    between atoms: _149  and  _151
REMARK   59  A    between atoms: _151  and  _152
REMARK   60  A    between atoms: _151  and  _154
REMARK   61  A    between atoms: _154  and  _155
REMARK   62  A    between atoms: _165  and  _167
REMARK   63  A    between atoms: _167  and  _168
REMARK   64  A    between atoms: _167  and  _170
REMARK   65  A    between atoms: _170  and  _171
REMARK   66  A    between atoms: _174  and  _176
REMARK   67  A    between atoms: _176  and  _177
REMARK   68  A    between atoms: _176  and  _179
REMARK   69  A    between atoms: _179  and  _180
REMARK   70  A    between atoms: _185  and  _186
REMARK   71  A    between atoms: _188  and  _190
REMARK   72  A    between atoms: _190  and  _191
REMARK   73  A    between atoms: _190  and  _193
REMARK   74  A    between atoms: _193  and  _194
REMARK   75  A    between atoms: _194  and  _195
REMARK   76  A    between atoms: _195  and  _196
REMARK   77  A    between atoms: _205  and  _207
REMARK   78  A    between atoms: _207  and  _208
REMARK   79  A    between atoms: _207  and  _210
REMARK   80  A    between atoms: _210  and  _211
REMARK   81  A    between atoms: _214  and  _216
REMARK   82  A    between atoms: _216  and  _217
REMARK   83  A    between atoms: _216  and  _219
REMARK   84  A    between atoms: _219  and  _220
REMARK   85  A    between atoms: _220  and  _221
REMARK   86  A    between atoms: _221  and  _222
REMARK   87  A    between atoms: _222  and  _223
REMARK   88  A    between atoms: _227  and  _229
REMARK   89  A    between atoms: _229  and  _230
REMARK   90  A    between atoms: _229  and  _232
REMARK   91  A    between atoms: _232  and  _233
REMARK   92  A    between atoms: _233  and  _234
REMARK   93  A    between atoms: _239  and  _241
REMARK   94  A    between atoms: _241  and  _242
REMARK   95  A    between atoms: _241  and  _244
REMARK   96  A    between atoms: _244  and  _245
REMARK   97  A    between atoms: _245  and  _246
REMARK   98  A    between atoms: _246  and  _247
REMARK   99  A    between atoms: _256  and  _258
REMARK  100  A    between atoms: _258  and  _259
REMARK  101  A    between atoms: _258  and  _261
REMARK  102  A    between atoms: _261  and  _262
REMARK  103  A    between atoms: _262  and  _263
REMARK  104  A    between atoms: _265  and  _267
REMARK  105  A    between atoms: _267  and  _268
REMARK  106  A    between atoms: _267  and  _270
REMARK  107  A    between atoms: _270  and  _271
REMARK  108  A    between atoms: _274  and  _276
REMARK  109  A    between atoms: _276  and  _277
REMARK  110  A    between atoms: _276  and  _279
REMARK  111  A    between atoms: _279  and  _280
REMARK  112  A    between atoms: _280  and  _281
REMARK  113  A    between atoms: _286  and  _288
REMARK  114  A    between atoms: _288  and  _289
REMARK  115  A    between atoms: _288  and  _291
REMARK  116  A    between atoms: _291  and  _292
REMARK  117  A    between atoms: _295  and  _297
REMARK  118  A    between atoms: _297  and  _298
REMARK  119  A    between atoms: _297  and  _300
REMARK  120  A    between atoms: _300  and  _301
REMARK  121  A    between atoms: _303  and  _305
REMARK  122  A    between atoms: _305  and  _306
REMARK  123  A    between atoms: _305  and  _308
REMARK  124  A    between atoms: _308  and  _309
REMARK  125  A    between atoms: _312  and  _314
REMARK  126  A    between atoms: _314  and  _315
REMARK  127  A    between atoms: _314  and  _317
REMARK  128  A    between atoms: _320  and  _322
REMARK  129  A    between atoms: _322  and  _323
REMARK  130  A    between atoms: _322  and  _325
REMARK  131  A    between atoms: _325  and  _326
REMARK  132  A    between atoms: _331  and  _333
REMARK  133  A    between atoms: _344  and  _347
REMARK  134  A    between atoms: _347  and  _348
REMARK  135  A    between atoms: _348  and  _349
REMARK  136  A    between atoms: _354  and  _357
REMARK  137  A    between atoms: _357  and  _358
REMARK  138  A    between atoms: _358  and  _359
REMARK  139  A    between atoms: _368  and  _369
REMARK  140  A    between atoms: _377  and  _379
REMARK  141  A    between atoms: _379  and  _380
REMARK  142  A    between atoms: _379  and  _382
REMARK  143  A    between atoms: _382  and  _383
REMARK  144  A    between atoms: _386  and  _388
REMARK  145  A    between atoms: _388  and  _389
REMARK  146  A    between atoms: _388  and  _391
REMARK  147  A    between atoms: _391  and  _392
REMARK  148  A    between atoms: _397  and  _398
REMARK  149  A    between atoms: _400  and  _402
REMARK  150  A    between atoms: _402  and  _403
REMARK  151  A    between atoms: _402  and  _405
REMARK  152  A    between atoms: _405  and  _406
REMARK  153  A    between atoms: _411  and  _412
REMARK  154  A    between atoms: _414  and  _416
REMARK  155  A    between atoms: _416  and  _417
REMARK  156  A    between atoms: _416  and  _419
REMARK  157  A    between atoms: _419  and  _420
REMARK  158  A    between atoms: _425  and  _426
REMARK  159  A    between atoms: _428  and  _430
REMARK  160  A    between atoms: _430  and  _431
REMARK  161  A    between atoms: _430  and  _433
REMARK  162  A    between atoms: _433  and  _434
REMARK  163  A    between atoms: _434  and  _435
REMARK  164  A    between atoms: _435  and  _436
REMARK  165  A    between atoms: _445  and  _447
REMARK  166  A    between atoms: _447  and  _448
REMARK  167  A    between atoms: _447  and  _450
REMARK  168  A    between atoms: _450  and  _451
REMARK  169  A    between atoms: _451  and  _452
REMARK  170  A    between atoms: _452  and  _453
REMARK  171  A    between atoms: _462  and  _464
REMARK  172  A    between atoms: _464  and  _465
REMARK  173  A    between atoms: _467  and  _469
REMARK  174  A    between atoms: _469  and  _470
REMARK  175  A    between atoms: _473  and  _475
REMARK  176  A    between atoms: _475  and  _476
REMARK  177  A    between atoms: _475  and  _478
REMARK  178  A    between atoms: _478  and  _479
REMARK  179  A    between atoms: _485  and  _486
REMARK  180  A    between atoms: _491  and  _493
REMARK  181  A    between atoms: _493  and  _494
REMARK  182  A    between atoms: _496  and  _498
REMARK  183  A    between atoms: _498  and  _499
REMARK  184  A    between atoms: _498  and  _501
REMARK  185  A    between atoms: _501  and  _502
REMARK  186  A    between atoms: _508  and  _510
REMARK  187  A    between atoms: _510  and  _511
REMARK  188  A    between atoms: _510  and  _513
REMARK  189  A    between atoms: _513  and  _514
REMARK  190  A    between atoms: _519  and  _521
REMARK  191  A    between atoms: _521  and  _522
REMARK  192  A    between atoms: _521  and  _524
REMARK  193  A    between atoms: _524  and  _525
REMARK  194  A    between atoms: _525  and  _526
REMARK  195  A    between atoms: _526  and  _527
REMARK  196  A    between atoms: _527  and  ZN_792
REMARK  197  A    between atoms: _529  and  _531
REMARK  198  A    between atoms: _531  and  _532
REMARK  199  A    between atoms: _535  and  _537
REMARK  200  A    between atoms: _537  and  _538
REMARK  201  A    between atoms: _540  and  _542
REMARK  202  A    between atoms: _542  and  _543
REMARK  203  A    between atoms: _542  and  _545
REMARK  204  A    between atoms: _545  and  _546
REMARK  205  A    between atoms: _549  and  _551
REMARK  206  A    between atoms: _551  and  _552
REMARK  207  A    between atoms: _551  and  _554
REMARK  208  A    between atoms: _557  and  _559
REMARK  209  A    between atoms: _559  and  _560
REMARK  210  A    between atoms: _563  and  _565
REMARK  211  A    between atoms: _565  and  _566
REMARK  212  A    between atoms: _565  and  _568
REMARK  213  A    between atoms: _568  and  _569
REMARK  214  A    between atoms: _572  and  _574
REMARK  215  A    between atoms: _574  and  _575
REMARK  216  A    between atoms: _574  and  _577
REMARK  217  A    between atoms: _577  and  _578
REMARK  218  A    between atoms: _578  and  _579
REMARK  219  A    between atoms: _582  and  _584
REMARK  220  A    between atoms: _584  and  _585
REMARK  221  A    between atoms: _584  and  _587
REMARK  222  A    between atoms: _587  and  _588
REMARK  223  A    between atoms: _588  and  _589
REMARK  224  A    between atoms: _589  and  _590
REMARK  225  A    between atoms: _590  and  _591
REMARK  226  A    between atoms: _595  and  _597
REMARK  227  A    between atoms: _597  and  _598
REMARK  228  A    between atoms: _597  and  _600
REMARK  229  A    between atoms: _600  and  _601
REMARK  230  A    between atoms: _607  and  _609
REMARK  231  A    between atoms: _609  and  _610
REMARK  232  A    between atoms: _609  and  _612
REMARK  233  A    between atoms: _612  and  _613
REMARK  234  A    between atoms: _619  and  _621
REMARK  235  A    between atoms: _621  and  _622
REMARK  236  A    between atoms: _624  and  _626
REMARK  237  A    between atoms: _626  and  _627
REMARK  238  A    between atoms: _626  and  _629
REMARK  239  A    between atoms: _632  and  _634
REMARK  240  A    between atoms: _634  and  _635
REMARK  241  A    between atoms: _634  and  _637
REMARK  242  A    between atoms: _637  and  _638
REMARK  243  A    between atoms: _638  and  _639
REMARK  244  A    between atoms: _639  and  _640
REMARK  245  A    between atoms: _640  and  _641
REMARK  246  A    between atoms: _645  and  _647
REMARK  247  A    between atoms: _647  and  _648
REMARK  248  A    between atoms: _647  and  _650
REMARK  249  A    between atoms: _650  and  _651
REMARK  250  A    between atoms: _657  and  _659
REMARK  251  A    between atoms: _659  and  _660
REMARK  252  A    between atoms: _659  and  _662
REMARK  253  A    between atoms: _662  and  _663
REMARK  254  A    between atoms: _668  and  _670
REMARK  255  A    between atoms: _670  and  _671
REMARK  256  A    between atoms: _670  and  _673
REMARK  257  A    between atoms: _673  and  _674
REMARK  258  A    between atoms: _679  and  _681
REMARK  259  A    between atoms: _681  and  _682
REMARK  260  A    between atoms: _681  and  _684
REMARK  261  A    between atoms: _687  and  _689
REMARK  262  A    between atoms: _689  and  _690
REMARK  263  A    between atoms: _689  and  _692
REMARK  264  A    between atoms: _692  and  _693
REMARK  265  A    between atoms: _697  and  _698
REMARK  266  A    between atoms: _703  and  _705
REMARK  267  A    between atoms: _705  and  _706
REMARK  268  A    between atoms: _705  and  _708
REMARK  269  A    between atoms: _708  and  _709
REMARK  270  A    between atoms: _714  and  _715
REMARK  271  A    between atoms: _717  and  _719
REMARK  272  A    between atoms: _719  and  _720
REMARK  273  A    between atoms: _719  and  _722
REMARK  274  A    between atoms: _722  and  _723
REMARK  275  A    between atoms: _723  and  _724
REMARK  276  A    between atoms: _724  and  _725
REMARK  277  A    between atoms: _734  and  _736
REMARK  278  A    between atoms: _736  and  _737
REMARK  279  A    between atoms: _736  and  _739
REMARK  280  A    between atoms: _739  and  _740
REMARK  281  A    between atoms: _745  and  _746
REMARK  282  A    between atoms: _748  and  _750
REMARK  283  A    between atoms: _750  and  _751
REMARK  284  A    between atoms: _750  and  _753
REMARK  285  A    between atoms: _753  and  _754
REMARK  286  A    between atoms: _760  and  _762
REMARK  287  A    between atoms: _762  and  _763
REMARK  288  A    between atoms: _762  and  _765
REMARK  289  A    between atoms: _765  and  _766
REMARK  290  A    between atoms: _768  and  _770
REMARK  291  A    between atoms: _770  and  _771
REMARK  292  A    between atoms: _770  and  _773
REMARK  293  A    between atoms: _773  and  _774
REMARK  294  A    between atoms: _780  and  _782
REMARK  295  A    between atoms: _782  and  _783
REMARK  296  A    between atoms: _782  and  _785
REMARK  297  A    between atoms: _785  and  _786
REMARK  298  A    between atoms: _786  and  _787
REMARK                            x       y       z     vdW  Elec       q    Type
REMARK                         _______ _______ _______ _____ _____    ______ ____
ROOT
ATOM      1  CA  TYR A   2       2.413 -16.685 -13.932  0.00  0.00    +0.153 C 
ENDROOT
BRANCH   1   4
ATOM      2  C   ARG A   1       0.450 -17.718 -12.954  0.00  0.00    +0.238 C 
ATOM      3  O   ARG A   1       1.027 -18.809 -12.874  0.00  0.00    -0.274 OA
ATOM      4  N   TYR A   2       1.040 -16.632 -13.434  0.00  0.00    -0.297 N 
ATOM      5  H   TYR A   2       0.520 -15.732 -13.456  0.00  0.00    +0.150 HD
BRANCH   2   6
ATOM      6  CA  ARG A   1      -1.010 -17.568 -12.505  0.00  0.00    +0.145 C 
BRANCH   6   7
ATOM      7  N   ARG A   1      -1.282 -16.233 -11.944  0.00  0.00    -0.238 NA
ATOM      8  H   ARG A   1      -2.115 -15.716 -12.290  0.00  0.00    +0.142 HD
ENDBRANCH   6   7
BRANCH   6   9
ATOM      9  CB  ARG A   1      -1.950 -17.863 -13.684  0.00  0.00    +0.030 C 
BRANCH   9  10
ATOM     10  CG  ARG A   1      -1.898 -16.840 -14.834  0.00  0.00    +0.045 C 
BRANCH  10  11
ATOM     11  CD  ARG A   1      -2.952 -17.102 -15.918  0.00  0.00    +0.174 C 
BRANCH  11  12
ATOM     12  NE  ARG A   1      -4.294 -17.151 -15.333  0.00  0.00    -0.265 N 
ATOM     13  HE  ARG A   1      -4.388 -16.928 -14.321  0.00  0.00    +0.259 HD
ATOM     14  CZ  ARG A   1      -5.405 -17.461 -16.005  0.00  0.00    +0.342 C 
ATOM     15  NH2 ARG A   1      -6.564 -17.497 -15.359  0.00  0.00    -0.292 N 
ATOM     16 HH21 ARG A   1      -6.599 -17.285 -14.341  0.00  0.00    +0.255 HD
ATOM     17 HH22 ARG A   1      -7.437 -17.737 -15.870  0.00  0.00    +0.255 HD
ATOM     18  NH1 ARG A   1      -5.361 -17.751 -17.308  0.00  0.00    -0.292 N 
ATOM     19 HH11 ARG A   1      -4.452 -17.737 -17.813  0.00  0.00    +0.255 HD
ATOM     20 HH12 ARG A   1      -6.236 -17.991 -17.817  0.00  0.00    +0.255 HD
ENDBRANCH  11  12
ENDBRANCH  10  11
ENDBRANCH   9  10
ENDBRANCH   6   9
ENDBRANCH   2   6
ENDBRANCH   1   4
BRANCH   1  21
ATOM     21  C   TYR A   2       3.439 -16.692 -12.797  0.00  0.00    +0.241 C 
ATOM     22  N   PHE A   3       3.159 -15.952 -11.728  0.00  0.00    -0.298 N 
ATOM     23  H   PHE A   3       2.351 -15.298 -11.747  0.00  0.00    +0.150 HD
ATOM     24  O   TYR A   2       4.456 -17.373 -12.881  0.00  0.00    -0.273 OA
BRANCH  22  25
ATOM     25  CA  PHE A   3       3.988 -16.057 -10.522  0.00  0.00    +0.141 C 
BRANCH  25  26
ATOM     26  C   PHE A   3       3.897 -17.456  -9.945  0.00  0.00    +0.227 C 
ATOM     27  O   PHE A   3       4.907 -18.034  -9.566  0.00  0.00    -0.286 OA
ENDBRANCH  25  26
BRANCH  25  28
ATOM     28  CB  PHE A   3       3.591 -15.035  -9.442  0.00  0.00    +0.054 C 
BRANCH  28  29
ATOM     29  CG  PHE A   3       4.468 -15.088  -8.207  0.00  0.00    -0.020 A 
ATOM     30  CD2 PHE A   3       4.024 -15.719  -7.048  0.00  0.00    -0.004 A 
ATOM     31  CE2 PHE A   3       4.820 -15.771  -5.911  0.00  0.00    -0.000 A 
ATOM     32  CZ  PHE A   3       6.082 -15.185  -5.926  0.00  0.00    -0.000 A 
ATOM     33  CE1 PHE A   3       6.537 -14.553  -7.078  0.00  0.00    -0.000 A 
ATOM     34  CD1 PHE A   3       5.725 -14.507  -8.210  0.00  0.00    -0.004 A 
ENDBRANCH  28  29
ENDBRANCH  25  28
ENDBRANCH  22  25
ENDBRANCH   1  21
BRANCH   1  35
ATOM     35  CB  TYR A   2       2.684 -15.532 -14.889  0.00  0.00    +0.055 C 
BRANCH  35  36
ATOM     36  CG  TYR A   2       1.778 -15.518 -16.103  0.00  0.00    -0.020 A 
ATOM     37  CD2 TYR A   2       0.897 -14.462 -16.327  0.00  0.00    -0.001 A 
ATOM     38  CE2 TYR A   2       0.079 -14.435 -17.448  0.00  0.00    +0.036 A 
ATOM     39  CZ  TYR A   2       0.149 -15.479 -18.366  0.00  0.00    +0.134 A 
ATOM     40  CE1 TYR A   2       1.005 -16.549 -18.165  0.00  0.00    +0.036 A 
ATOM     41  CD1 TYR A   2       1.807 -16.575 -17.035  0.00  0.00    -0.001 A 
BRANCH  39  42
ATOM     42  OH  TYR A   2      -0.641 -15.470 -19.486  0.00  0.00    -0.506 OA
ATOM     43  HH  TYR A   2      -0.461 -16.283 -20.022  0.00  0.00    +0.292 HD
ENDBRANCH  39  42
ENDBRANCH  35  36
ENDBRANCH   1  35
TORSDOF 15
REMARK  Name = ../refined-set-2016/4ca6/4ca6_pocket.pdb
REMARK  298 active torsions:
REMARK  status: ('A' for Active; 'I' for Inactive)
REMARK    1  A    between atoms: _1  and  _3
REMARK    2  A    between atoms: _3  and  _4
REMARK    3  A    between atoms: _3  and  _6
REMARK    4  A    between atoms: _6  and  _7
REMARK    5  A    between atoms: _10  and  _12
REMARK    6  A    between atoms: _12  and  _13
REMARK    7  A    between atoms: _12  and  _15
REMARK    8  A    between atoms: _15  and  _16
REMARK    9  A    between atoms: _18  and  _20
REMARK   10  A    between atoms: _20  and  _21
REMARK   11  A    between atoms: _20  and  _23
REMARK   12  A    between atoms: _23  and  _24
REMARK   13  A    between atoms: _29  and  _30
REMARK   14  A    between atoms: _32  and  _34
REMARK   15  A    between atoms: _34  and  _35
REMARK   16  A    between atoms: _34  and  _37
REMARK   17  A    between atoms: _37  and  _38
REMARK   18  A    between atoms: _48  and  _50
REMARK   19  A    between atoms: _50  and  _51
REMARK   20  A    between atoms: _50  and  _53
REMARK   21  A    between atoms: _53  and  _54
REMARK   22  A    between atoms: _57  and  _59
REMARK   23  A    between atoms: _59  and  _60
REMARK   24  A    between atoms: _59  and  _62
REMARK   25  A    between atoms: _62  and  _63
REMARK   26  A    between atoms: _73  and  _75
REMARK   27  A    between atoms: _75  and  _76
REMARK   28  A    between atoms: _75  and  _78
REMARK   29  A    between atoms: _78  and  _79
REMARK   30  A    between atoms: _79  and  _80
REMARK   31  A    between atoms: _85  and  _87
REMARK   32  A    between atoms: _87  and  _88
REMARK   33  A    between atoms: _87  and  _90
REMARK   34  A    between atoms: _90  and  _91
REMARK   35  A    between atoms: _93  and  _95
REMARK   36  A    between atoms: _95  and  _96
REMARK   37  A    between atoms: _95  and  _98
REMARK   38  A    between atoms: _98  and  _99
REMARK   39  A    between atoms: _99  and  _100
REMARK   40  A    between atoms: _103  and  _105
REMARK   41  A    between atoms: _105  and  _106
REMARK   42  A    between atoms: _105  and  _108
REMARK   43  A    between atoms: _111  and  _113
REMARK   44  A    between atoms: _113  and  _114
REMARK   45  A    between atoms: _113  and  _116
REMARK   46  A    between atoms: _118  and  _120
REMARK   47  A    between atoms: _120  and  _121
REMARK   48  A    between atoms: _120  and  _123
REMARK   49  A    between atoms: _123  and  _124
REMARK   50  A    between atoms: _129  and  _131
REMARK   51  A    between atoms: _131  and  _132
REMARK   52  A    between atoms: _135  and  _137
REMARK   53  A    between atoms: _137  and  _138
REMARK   54  A    between atoms: _137  and  _140
REMARK   55  A    between atoms: _140  and  _141
REMARK   56  A    between atoms: _143  and  _145
REMARK   57  A    between atoms: _145  and  _146
REMARK   58  A    between atoms: _149  and  _151
REMARK   59  A    between atoms: _151  and  _152
REMARK   60  A    between atoms: _151  and  _154
REMARK   61  A    between atoms: _154  and  _155
REMARK   62  A    between atoms: _165  and  _167
REMARK   63  A    between atoms: _167  and  _168
REMARK   64  A    between atoms: _167  and  _170
REMARK   65  A    between atoms: _170  and  _171
REMARK   66  A    between atoms: _174  and  _176
REMARK   67  A    between atoms: _176  and  _177
REMARK   68  A    between atoms: _176  and  _179
REMARK   69  A    between atoms: _179  and  _180
REMARK   70  A    between atoms: _185  and  _186
REMARK   71  A    between atoms: _188  and  _190
REMARK   72  A    between atoms: _190  and  _191
REMARK   73  A    between atoms: _190  and  _193
REMARK   74  A    between atoms: _193  and  _194
REMARK   75  A    between atoms: _194  and  _195
REMARK   76  A    between atoms: _195  and  _196
REMARK   77  A    between atoms: _205  and  _207
REMARK   78  A    between atoms: _207  and  _208
REMARK   79  A    between atoms: _207  and  _210
REMARK   80  A    between atoms: _210  and  _211
REMARK   81  A    between atoms: _214  and  _216
REMARK   82  A    between atoms: _216  and  _217
REMARK   83  A    between atoms: _216  and  _219
REMARK   84  A    between atoms: _219  and  _220
REMARK   85  A    between atoms: _220  and  _221
REMARK   86  A    between atoms: _221  and  _222
REMARK   87  A    between atoms: _222  and  _223
REMARK   88  A    between atoms: _227  and  _229
REMARK   89  A    between atoms: _229  and  _230
REMARK   90  A    between atoms: _229  and  _232
REMARK   91  A    between atoms: _232  and  _233
REMARK   92  A    between atoms: _233  and  _234
REMARK   93  A    between atoms: _239  and  _241
REMARK   94  A    between atoms: _241  and  _242
REMARK   95  A    between atoms: _241  and  _244
REMARK   96  A    between atoms: _244  and  _245
REMARK   97  A    between atoms: _245  and  _246
REMARK   98  A    between atoms: _246  and  _247
REMARK   99  A    between atoms: _256  and  _258
REMARK  100  A    between atoms: _258  and  _259
REMARK  101  A    between atoms: _258  and  _261
REMARK  102  A    between atoms: _261  and  _262
REMARK  103  A    between atoms: _262  and  _263
REMARK  104  A    between atoms: _265  and  _267
REMARK  105  A    between atoms: _267  and  _268
REMARK  106  A    between atoms: _267  and  _270
REMARK  107  A    between atoms: _270  and  _271
REMARK  108  A    between atoms: _274  and  _276
REMARK  109  A    between atoms: _276  and  _277
REMARK  110  A    between atoms: _276  and  _279
REMARK  111  A    between atoms: _279  and  _280
REMARK  112  A    between atoms: _280  and  _281
REMARK  113  A    between atoms: _286  and  _288
REMARK  114  A    between atoms: _288  and  _289
REMARK  115  A    between atoms: _288  and  _291
REMARK  116  A    between atoms: _291  and  _292
REMARK  117  A    between atoms: _295  and  _297
REMARK  118  A    between atoms: _297  and  _298
REMARK  119  A    between atoms: _297  and  _300
REMARK  120  A    between atoms: _300  and  _301
REMARK  121  A    between atoms: _303  and  _305
REMARK  122  A    between atoms: _305  and  _306
REMARK  123  A    between atoms: _305  and  _308
REMARK  124  A    between atoms: _308  and  _309
REMARK  125  A    between atoms: _312  and  _314
REMARK  126  A    between atoms: _314  and  _315
REMARK  127  A    between atoms: _314  and  _317
REMARK  128  A    between atoms: _320  and  _322
REMARK  129  A    between atoms: _322  and  _323
REMARK  130  A    between atoms: _322  and  _325
REMARK  131  A    between atoms: _325  and  _326
REMARK  132  A    between atoms: _331  and  _333
REMARK  133  A    between atoms: _344  and  _347
REMARK  134  A    between atoms: _347  and  _348
REMARK  135  A    between atoms: _348  and  _349
REMARK  136  A    between atoms: _354  and  _357
REMARK  137  A    between atoms: _357  and  _358
REMARK  138  A    between atoms: _358  and  _359
REMARK  139  A    between atoms: _368  and  _369
REMARK  140  A    between atoms: _377  and  _379
REMARK  141  A    between atoms: _379  and  _380
REMARK  142  A    between atoms: _379  and  _382
REMARK  143  A    between atoms: _382  and  _383
REMARK  144  A    between atoms: _386  and  _388
REMARK  145  A    between atoms: _388  and  _389
REMARK  146  A    between atoms: _388  and  _391
REMARK  147  A    between atoms: _391  and  _392
REMARK  148  A    between atoms: _397  and  _398
REMARK  149  A    between atoms: _400  and  _402
REMARK  150  A    between atoms: _402  and  _403
REMARK  151  A    between atoms: _402  and  _405
REMARK  152  A    between atoms: _405  and  _406
REMARK  153  A    between atoms: _411  and  _412
REMARK  154  A    between atoms: _414  and  _416
REMARK  155  A    between atoms: _416  and  _417
REMARK  156  A    between atoms: _416  and  _419
REMARK  157  A    between atoms: _419  and  _420
REMARK  158  A    between atoms: _425  and  _426
REMARK  159  A    between atoms: _428  and  _430
REMARK  160  A    between atoms: _430  and  _431
REMARK  161  A    between atoms: _430  and  _433
REMARK  162  A    between atoms: _433  and  _434
REMARK  163  A    between atoms: _434  and  _435
REMARK  164  A    between atoms: _435  and  _436
REMARK  165  A    between atoms: _445  and  _447
REMARK  166  A    between atoms: _447  and  _448
REMARK  167  A    between atoms: _447  and  _450
REMARK  168  A    between atoms: _450  and  _451
REMARK  169  A    between atoms: _451  and  _452
REMARK  170  A    between atoms: _452  and  _453
REMARK  171  A    between atoms: _462  and  _464
REMARK  172  A    between atoms: _464  and  _465
REMARK  173  A    between atoms: _467  and  _469
REMARK  174  A    between atoms: _469  and  _470
REMARK  175  A    between atoms: _473  and  _475
REMARK  176  A    between atoms: _475  and  _476
REMARK  177  A    between atoms: _475  and  _478
REMARK  178  A    between atoms: _478  and  _479
REMARK  179  A    between atoms: _485  and  _486
REMARK  180  A    between atoms: _491  and  _493
REMARK  181  A    between atoms: _493  and  _494
REMARK  182  A    between atoms: _496  and  _498
REMARK  183  A    between atoms: _498  and  _499
REMARK  184  A    between atoms: _498  and  _501
REMARK  185  A    between atoms: _501  and  _502
REMARK  186  A    between atoms: _508  and  _510
REMARK  187  A    between atoms: _510  and  _511
REMARK  188  A    between atoms: _510  and  _513
REMARK  189  A    between atoms: _513  and  _514
REMARK  190  A    between atoms: _519  and  _521
REMARK  191  A    between atoms: _521  and  _522
REMARK  192  A    between atoms: _521  and  _524
REMARK  193  A    between atoms: _524  and  _525
REMARK  194  A    between atoms: _525  and  _526
REMARK  195  A    between atoms: _526  and  _527
REMARK  196  A    between atoms: _527  and  ZN_792
REMARK  197  A    between atoms: _529  and  _531
REMARK  198  A    between atoms: _531  and  _532
REMARK  199  A    between atoms: _535  and  _537
REMARK  200  A    between atoms: _537  and  _538
REMARK  201  A    between atoms: _540  and  _542
REMARK  202  A    between atoms: _542  and  _543
REMARK  203  A    between atoms: _542  and  _545
REMARK  204  A    between atoms: _545  and  _546
REMARK  205  A    between atoms: _549  and  _551
REMARK  206  A    between atoms: _551  and  _552
REMARK  207  A    between atoms: _551  and  _554
REMARK  208  A    between atoms: _557  and  _559
REMARK  209  A    between atoms: _559  and  _560
REMARK  210  A    between atoms: _563  and  _565
REMARK  211  A    between atoms: _565  and  _566
REMARK  212  A    between atoms: _565  and  _568
REMARK  213  A    between atoms: _568  and  _569
REMARK  214  A    between atoms: _572  and  _574
REMARK  215  A    between atoms: _574  and  _575
REMARK  216  A    between atoms: _574  and  _577
REMARK  217  A    between atoms: _577  and  _578
REMARK  218  A    between atoms: _578  and  _579
REMARK  219  A    between atoms: _582  and  _584
REMARK  220  A    between atoms: _584  and  _585
REMARK  221  A    between atoms: _584  and  _587
REMARK  222  A    between atoms: _587  and  _588
REMARK  223  A    between atoms: _588  and  _589
REMARK  224  A    between atoms: _589  and  _590
REMARK  225  A    between atoms: _590  and  _591
REMARK  226  A    between atoms: _595  and  _597
REMARK  227  A    between atoms: _597  and  _598
REMARK  228  A    between atoms: _597  and  _600
REMARK  229  A    between atoms: _600  and  _601
REMARK  230  A    between atoms: _607  and  _609
REMARK  231  A    between atoms: _609  and  _610
REMARK  232  A    between atoms: _609  and  _612
REMARK  233  A    between atoms: _612  and  _613
REMARK  234  A    between atoms: _619  and  _621
REMARK  235  A    between atoms: _621  and  _622
REMARK  236  A    between atoms: _624  and  _626
REMARK  237  A    between atoms: _626  and  _627
REMARK  238  A    between atoms: _626  and  _629
REMARK  239  A    between atoms: _632  and  _634
REMARK  240  A    between atoms: _634  and  _635
REMARK  241  A    between atoms: _634  and  _637
REMARK  242  A    between atoms: _637  and  _638
REMARK  243  A    between atoms: _638  and  _639
REMARK  244  A    between atoms: _639  and  _640
REMARK  245  A    between atoms: _640  and  _641
REMARK  246  A    between atoms: _645  and  _647
REMARK  247  A    between atoms: _647  and  _648
REMARK  248  A    between atoms: _647  and  _650
REMARK  249  A    between atoms: _650  and  _651
REMARK  250  A    between atoms: _657  and  _659
REMARK  251  A    between atoms: _659  and  _660
REMARK  252  A    between atoms: _659  and  _662
REMARK  253  A    between atoms: _662  and  _663
REMARK  254  A    between atoms: _668  and  _670
REMARK  255  A    between atoms: _670  and  _671
REMARK  256  A    between atoms: _670  and  _673
REMARK  257  A    between atoms: _673  and  _674
REMARK  258  A    between atoms: _679  and  _681
REMARK  259  A    between atoms: _681  and  _682
REMARK  260  A    between atoms: _681  and  _684
REMARK  261  A    between atoms: _687  and  _689
REMARK  262  A    between atoms: _689  and  _690
REMARK  263  A    between atoms: _689  and  _692
REMARK  264  A    between atoms: _692  and  _693
REMARK  265  A    between atoms: _697  and  _698
REMARK  266  A    between atoms: _703  and  _705
REMARK  267  A    between atoms: _705  and  _706
REMARK  268  A    between atoms: _705  and  _708
REMARK  269  A    between atoms: _708  and  _709
REMARK  270  A    between atoms: _714  and  _715
REMARK  271  A    between atoms: _717  and  _719
REMARK  272  A    between atoms: _719  and  _720
REMARK  273  A    between atoms: _719  and  _722
REMARK  274  A    between atoms: _722  and  _723
REMARK  275  A    between atoms: _723  and  _724
REMARK  276  A    between atoms: _724  and  _725
REMARK  277  A    between atoms: _734  and  _736
REMARK  278  A    between atoms: _736  and  _737
REMARK  279  A    between atoms: _736  and  _739
REMARK  280  A    between atoms: _739  and  _740
REMARK  281  A    between atoms: _745  and  _746
REMARK  282  A    between atoms: _748  and  _750
REMARK  283  A    between atoms: _750  and  _751
REMARK  284  A    between atoms: _750  and  _753
REMARK  285  A    between atoms: _753  and  _754
REMARK  286  A    between atoms: _760  and  _762
REMARK  287  A    between atoms: _762  and  _763
REMARK  288  A    between atoms: _762  and  _765
REMARK  289  A    between atoms: _765  and  _766
REMARK  290  A    between atoms: _768  and  _770
REMARK  291  A    between atoms: _770  and  _771
REMARK  292  A    between atoms: _770  and  _773
REMARK  293  A    between atoms: _773  and  _774
REMARK  294  A    between atoms: _780  and  _782
REMARK  295  A    between atoms: _782  and  _783
REMARK  296  A    between atoms: _782  and  _785
REMARK  297  A    between atoms: _785  and  _786
REMARK  298  A    between atoms: _786  and  _787
REMARK                            x       y       z     vdW  Elec       q    Type
REMARK                         _______ _______ _______ _____ _____    ______ ____
ROOT
ATOM      1  C   SER A   1       5.293 -21.049 -12.402  0.00  0.00    +0.241 C 
ATOM      2  N   PHE A   2       5.888 -19.899 -12.130  0.00  0.00    -0.298 N 
ATOM      3  H   PHE A   2       5.318 -19.041 -11.985  0.00  0.00    +0.150 HD
ATOM      4  O   SER A   1       5.914 -22.116 -12.494  0.00  0.00    -0.274 OA
ENDROOT
BRANCH   1   5
ATOM      5  CA  SER A   1       3.778 -20.995 -12.597  0.00  0.00    +0.174 C 
BRANCH   5   6
ATOM      6  N   SER A   1       3.123 -20.134 -11.612  0.00  0.00    -0.236 NA
ATOM      7  H   SER A   1       2.571 -19.319 -11.948  0.00  0.00    +0.142 HD
ENDBRANCH   5   6
BRANCH   5   8
ATOM      8  CB  SER A   1       3.490 -20.496 -14.014  0.00  0.00    +0.163 C 
BRANCH   8   9
ATOM      9  OG  SER A   1       4.199 -21.285 -14.951  0.00  0.00    -0.380 OA
ATOM     10  H   SER A   1       4.009 -20.958 -15.866  0.00  0.00    +0.211 HD
ENDBRANCH   8   9
ENDBRANCH   5   8
ENDBRANCH   1   5
BRANCH   2  11
ATOM     11  CA  PHE A   2       7.339 -19.832 -12.034  0.00  0.00    +0.141 C 
BRANCH  11  12
ATOM     12  C   PHE A   2       7.905 -20.594 -10.838  0.00  0.00    +0.227 C 
ATOM     13  O   PHE A   2       9.025 -21.094 -10.906  0.00  0.00    -0.286 OA
ENDBRANCH  11  12
BRANCH  11  14
ATOM     14  CB  PHE A   2       7.808 -18.378 -12.072  0.00  0.00    +0.054 C 
BRANCH  14  15
ATOM     15  CG  PHE A   2       8.068 -17.879 -13.457  0.00  0.00    -0.020 A 
ATOM     16  CD2 PHE A   2       9.306 -17.338 -13.779  0.00  0.00    -0.004 A 
ATOM     17  CE2 PHE A   2       9.556 -16.885 -15.060  0.00  0.00    -0.000 A 
ATOM     18  CZ  PHE A   2       8.574 -16.982 -16.049  0.00  0.00    -0.000 A 
ATOM     19  CE1 PHE A   2       7.337 -17.519 -15.748  0.00  0.00    -0.000 A 
ATOM     20  CD1 PHE A   2       7.086 -17.971 -14.454  0.00  0.00    -0.004 A 
ENDBRANCH  14  15
ENDBRANCH  11  14
ENDBRANCH   2  11
TORSDOF 8
REMARK  Name = ../refined-set-2016/4ca6/4ca6_pocket.pdb
REMARK  298 active torsions:
REMARK  status: ('A' for Active; 'I' for Inactive)
REMARK    1  A    between atoms: _1  and  _3
REMARK    2  A    between atoms: _3  and  _4
REMARK    3  A    between atoms: _3  and  _6
REMARK    4  A    between atoms: _6  and  _7
REMARK    5  A    between atoms: _10  and  _12
REMARK    6  A    between atoms: _12  and  _13
REMARK    7  A    between atoms: _12  and  _15
REMARK    8  A    between atoms: _15  and  _16
REMARK    9  A    between atoms: _18  and  _20
REMARK   10  A    between atoms: _20  and  _21
REMARK   11  A    between atoms: _20  and  _23
REMARK   12  A    between atoms: _23  and  _24
REMARK   13  A    between atoms: _29  and  _30
REMARK   14  A    between atoms: _32  and  _34
REMARK   15  A    between atoms: _34  and  _35
REMARK   16  A    between atoms: _34  and  _37
REMARK   17  A    between atoms: _37  and  _38
REMARK   18  A    between atoms: _48  and  _50
REMARK   19  A    between atoms: _50  and  _51
REMARK   20  A    between atoms: _50  and  _53
REMARK   21  A    between atoms: _53  and  _54
REMARK   22  A    between atoms: _57  and  _59
REMARK   23  A    between atoms: _59  and  _60
REMARK   24  A    between atoms: _59  and  _62
REMARK   25  A    between atoms: _62  and  _63
REMARK   26  A    between atoms: _73  and  _75
REMARK   27  A    between atoms: _75  and  _76
REMARK   28  A    between atoms: _75  and  _78
REMARK   29  A    between atoms: _78  and  _79
REMARK   30  A    between atoms: _79  and  _80
REMARK   31  A    between atoms: _85  and  _87
REMARK   32  A    between atoms: _87  and  _88
REMARK   33  A    between atoms: _87  and  _90
REMARK   34  A    between atoms: _90  and  _91
REMARK   35  A    between atoms: _93  and  _95
REMARK   36  A    between atoms: _95  and  _96
REMARK   37  A    between atoms: _95  and  _98
REMARK   38  A    between atoms: _98  and  _99
REMARK   39  A    between atoms: _99  and  _100
REMARK   40  A    between atoms: _103  and  _105
REMARK   41  A    between atoms: _105  and  _106
REMARK   42  A    between atoms: _105  and  _108
REMARK   43  A    between atoms: _111  and  _113
REMARK   44  A    between atoms: _113  and  _114
REMARK   45  A    between atoms: _113  and  _116
REMARK   46  A    between atoms: _118  and  _120
REMARK   47  A    between atoms: _120  and  _121
REMARK   48  A    between atoms: _120  and  _123
REMARK   49  A    between atoms: _123  and  _124
REMARK   50  A    between atoms: _129  and  _131
REMARK   51  A    between atoms: _131  and  _132
REMARK   52  A    between atoms: _135  and  _137
REMARK   53  A    between atoms: _137  and  _138
REMARK   54  A    between atoms: _137  and  _140
REMARK   55  A    between atoms: _140  and  _141
REMARK   56  A    between atoms: _143  and  _145
REMARK   57  A    between atoms: _145  and  _146
REMARK   58  A    between atoms: _149  and  _151
REMARK   59  A    between atoms: _151  and  _152
REMARK   60  A    between atoms: _151  and  _154
REMARK   61  A    between atoms: _154  and  _155
REMARK   62  A    between atoms: _165  and  _167
REMARK   63  A    between atoms: _167  and  _168
REMARK   64  A    between atoms: _167  and  _170
REMARK   65  A    between atoms: _170  and  _171
REMARK   66  A    between atoms: _174  and  _176
REMARK   67  A    between atoms: _176  and  _177
REMARK   68  A    between atoms: _176  and  _179
REMARK   69  A    between atoms: _179  and  _180
REMARK   70  A    between atoms: _185  and  _186
REMARK   71  A    between atoms: _188  and  _190
REMARK   72  A    between atoms: _190  and  _191
REMARK   73  A    between atoms: _190  and  _193
REMARK   74  A    between atoms: _193  and  _194
REMARK   75  A    between atoms: _194  and  _195
REMARK   76  A    between atoms: _195  and  _196
REMARK   77  A    between atoms: _205  and  _207
REMARK   78  A    between atoms: _207  and  _208
REMARK   79  A    between atoms: _207  and  _210
REMARK   80  A    between atoms: _210  and  _211
REMARK   81  A    between atoms: _214  and  _216
REMARK   82  A    between atoms: _216  and  _217
REMARK   83  A    between atoms: _216  and  _219
REMARK   84  A    between atoms: _219  and  _220
REMARK   85  A    between atoms: _220  and  _221
REMARK   86  A    between atoms: _221  and  _222
REMARK   87  A    between atoms: _222  and  _223
REMARK   88  A    between atoms: _227  and  _229
REMARK   89  A    between atoms: _229  and  _230
REMARK   90  A    between atoms: _229  and  _232
REMARK   91  A    between atoms: _232  and  _233
REMARK   92  A    between atoms: _233  and  _234
REMARK   93  A    between atoms: _239  and  _241
REMARK   94  A    between atoms: _241  and  _242
REMARK   95  A    between atoms: _241  and  _244
REMARK   96  A    between atoms: _244  and  _245
REMARK   97  A    between atoms: _245  and  _246
REMARK   98  A    between atoms: _246  and  _247
REMARK   99  A    between atoms: _256  and  _258
REMARK  100  A    between atoms: _258  and  _259
REMARK  101  A    between atoms: _258  and  _261
REMARK  102  A    between atoms: _261  and  _262
REMARK  103  A    between atoms: _262  and  _263
REMARK  104  A    between atoms: _265  and  _267
REMARK  105  A    between atoms: _267  and  _268
REMARK  106  A    between atoms: _267  and  _270
REMARK  107  A    between atoms: _270  and  _271
REMARK  108  A    between atoms: _274  and  _276
REMARK  109  A    between atoms: _276  and  _277
REMARK  110  A    between atoms: _276  and  _279
REMARK  111  A    between atoms: _279  and  _280
REMARK  112  A    between atoms: _280  and  _281
REMARK  113  A    between atoms: _286  and  _288
REMARK  114  A    between atoms: _288  and  _289
REMARK  115  A    between atoms: _288  and  _291
REMARK  116  A    between atoms: _291  and  _292
REMARK  117  A    between atoms: _295  and  _297
REMARK  118  A    between atoms: _297  and  _298
REMARK  119  A    between atoms: _297  and  _300
REMARK  120  A    between atoms: _300  and  _301
REMARK  121  A    between atoms: _303  and  _305
REMARK  122  A    between atoms: _305  and  _306
REMARK  123  A    between atoms: _305  and  _308
REMARK  124  A    between atoms: _308  and  _309
REMARK  125  A    between atoms: _312  and  _314
REMARK  126  A    between atoms: _314  and  _315
REMARK  127  A    between atoms: _314  and  _317
REMARK  128  A    between atoms: _320  and  _322
REMARK  129  A    between atoms: _322  and  _323
REMARK  130  A    between atoms: _322  and  _325
REMARK  131  A    between atoms: _325  and  _326
REMARK  132  A    between atoms: _331  and  _333
REMARK  133  A    between atoms: _344  and  _347
REMARK  134  A    between atoms: _347  and  _348
REMARK  135  A    between atoms: _348  and  _349
REMARK  136  A    between atoms: _354  and  _357
REMARK  137  A    between atoms: _357  and  _358
REMARK  138  A    between atoms: _358  and  _359
REMARK  139  A    between atoms: _368  and  _369
REMARK  140  A    between atoms: _377  and  _379
REMARK  141  A    between atoms: _379  and  _380
REMARK  142  A    between atoms: _379  and  _382
REMARK  143  A    between atoms: _382  and  _383
REMARK  144  A    between atoms: _386  and  _388
REMARK  145  A    between atoms: _388  and  _389
REMARK  146  A    between atoms: _388  and  _391
REMARK  147  A    between atoms: _391  and  _392
REMARK  148  A    between atoms: _397  and  _398
REMARK  149  A    between atoms: _400  and  _402
REMARK  150  A    between atoms: _402  and  _403
REMARK  151  A    between atoms: _402  and  _405
REMARK  152  A    between atoms: _405  and  _406
REMARK  153  A    between atoms: _411  and  _412
REMARK  154  A    between atoms: _414  and  _416
REMARK  155  A    between atoms: _416  and  _417
REMARK  156  A    between atoms: _416  and  _419
REMARK  157  A    between atoms: _419  and  _420
REMARK  158  A    between atoms: _425  and  _426
REMARK  159  A    between atoms: _428  and  _430
REMARK  160  A    between atoms: _430  and  _431
REMARK  161  A    between atoms: _430  and  _433
REMARK  162  A    between atoms: _433  and  _434
REMARK  163  A    between atoms: _434  and  _435
REMARK  164  A    between atoms: _435  and  _436
REMARK  165  A    between atoms: _445  and  _447
REMARK  166  A    between atoms: _447  and  _448
REMARK  167  A    between atoms: _447  and  _450
REMARK  168  A    between atoms: _450  and  _451
REMARK  169  A    between atoms: _451  and  _452
REMARK  170  A    between atoms: _452  and  _453
REMARK  171  A    between atoms: _462  and  _464
REMARK  172  A    between atoms: _464  and  _465
REMARK  173  A    between atoms: _467  and  _469
REMARK  174  A    between atoms: _469  and  _470
REMARK  175  A    between atoms: _473  and  _475
REMARK  176  A    between atoms: _475  and  _476
REMARK  177  A    between atoms: _475  and  _478
REMARK  178  A    between atoms: _478  and  _479
REMARK  179  A    between atoms: _485  and  _486
REMARK  180  A    between atoms: _491  and  _493
REMARK  181  A    between atoms: _493  and  _494
REMARK  182  A    between atoms: _496  and  _498
REMARK  183  A    between atoms: _498  and  _499
REMARK  184  A    between atoms: _498  and  _501
REMARK  185  A    between atoms: _501  and  _502
REMARK  186  A    between atoms: _508  and  _510
REMARK  187  A    between atoms: _510  and  _511
REMARK  188  A    between atoms: _510  and  _513
REMARK  189  A    between atoms: _513  and  _514
REMARK  190  A    between atoms: _519  and  _521
REMARK  191  A    between atoms: _521  and  _522
REMARK  192  A    between atoms: _521  and  _524
REMARK  193  A    between atoms: _524  and  _525
REMARK  194  A    between atoms: _525  and  _526
REMARK  195  A    between atoms: _526  and  _527
REMARK  196  A    between atoms: _527  and  ZN_792
REMARK  197  A    between atoms: _529  and  _531
REMARK  198  A    between atoms: _531  and  _532
REMARK  199  A    between atoms: _535  and  _537
REMARK  200  A    between atoms: _537  and  _538
REMARK  201  A    between atoms: _540  and  _542
REMARK  202  A    between atoms: _542  and  _543
REMARK  203  A    between atoms: _542  and  _545
REMARK  204  A    between atoms: _545  and  _546
REMARK  205  A    between atoms: _549  and  _551
REMARK  206  A    between atoms: _551  and  _552
REMARK  207  A    between atoms: _551  and  _554
REMARK  208  A    between atoms: _557  and  _559
REMARK  209  A    between atoms: _559  and  _560
REMARK  210  A    between atoms: _563  and  _565
REMARK  211  A    between atoms: _565  and  _566
REMARK  212  A    between atoms: _565  and  _568
REMARK  213  A    between atoms: _568  and  _569
REMARK  214  A    between atoms: _572  and  _574
REMARK  215  A    between atoms: _574  and  _575
REMARK  216  A    between atoms: _574  and  _577
REMARK  217  A    between atoms: _577  and  _578
REMARK  218  A    between atoms: _578  and  _579
REMARK  219  A    between atoms: _582  and  _584
REMARK  220  A    between atoms: _584  and  _585
REMARK  221  A    between atoms: _584  and  _587
REMARK  222  A    between atoms: _587  and  _588
REMARK  223  A    between atoms: _588  and  _589
REMARK  224  A    between atoms: _589  and  _590
REMARK  225  A    between atoms: _590  and  _591
REMARK  226  A    between atoms: _595  and  _597
REMARK  227  A    between atoms: _597  and  _598
REMARK  228  A    between atoms: _597  and  _600
REMARK  229  A    between atoms: _600  and  _601
REMARK  230  A    between atoms: _607  and  _609
REMARK  231  A    between atoms: _609  and  _610
REMARK  232  A    between atoms: _609  and  _612
REMARK  233  A    between atoms: _612  and  _613
REMARK  234  A    between atoms: _619  and  _621
REMARK  235  A    between atoms: _621  and  _622
REMARK  236  A    between atoms: _624  and  _626
REMARK  237  A    between atoms: _626  and  _627
REMARK  238  A    between atoms: _626  and  _629
REMARK  239  A    between atoms: _632  and  _634
REMARK  240  A    between atoms: _634  and  _635
REMARK  241  A    between atoms: _634  and  _637
REMARK  242  A    between atoms: _637  and  _638
REMARK  243  A    between atoms: _638  and  _639
REMARK  244  A    between atoms: _639  and  _640
REMARK  245  A    between atoms: _640  and  _641
REMARK  246  A    between atoms: _645  and  _647
REMARK  247  A    between atoms: _647  and  _648
REMARK  248  A    between atoms: _647  and  _650
REMARK  249  A    between atoms: _650  and  _651
REMARK  250  A    between atoms: _657  and  _659
REMARK  251  A    between atoms: _659  and  _660
REMARK  252  A    between atoms: _659  and  _662
REMARK  253  A    between atoms: _662  and  _663
REMARK  254  A    between atoms: _668  and  _670
REMARK  255  A    between atoms: _670  and  _671
REMARK  256  A    between atoms: _670  and  _673
REMARK  257  A    between atoms: _673  and  _674
REMARK  258  A    between atoms: _679  and  _681
REMARK  259  A    between atoms: _681  and  _682
REMARK  260  A    between atoms: _681  and  _684
REMARK  261  A    between atoms: _687  and  _689
REMARK  262  A    between atoms: _689  and  _690
REMARK  263  A    between atoms: _689  and  _692
REMARK  264  A    between atoms: _692  and  _693
REMARK  265  A    between atoms: _697  and  _698
REMARK  266  A    between atoms: _703  and  _705
REMARK  267  A    between atoms: _705  and  _706
REMARK  268  A    between atoms: _705  and  _708
REMARK  269  A    between atoms: _708  and  _709
REMARK  270  A    between atoms: _714  and  _715
REMARK  271  A    between atoms: _717  and  _719
REMARK  272  A    between atoms: _719  and  _720
REMARK  273  A    between atoms: _719  and  _722
REMARK  274  A    between atoms: _722  and  _723
REMARK  275  A    between atoms: _723  and  _724
REMARK  276  A    between atoms: _724  and  _725
REMARK  277  A    between atoms: _734  and  _736
REMARK  278  A    between atoms: _736  and  _737
REMARK  279  A    between atoms: _736  and  _739
REMARK  280  A    between atoms: _739  and  _740
REMARK  281  A    between atoms: _745  and  _746
REMARK  282  A    between atoms: _748  and  _750
REMARK  283  A    between atoms: _750  and  _751
REMARK  284  A    between atoms: _750  and  _753
REMARK  285  A    between atoms: _753  and  _754
REMARK  286  A    between atoms: _760  and  _762
REMARK  287  A    between atoms: _762  and  _763
REMARK  288  A    between atoms: _762  and  _765
REMARK  289  A    between atoms: _765  and  _766
REMARK  290  A    between atoms: _768  and  _770
REMARK  291  A    between atoms: _770  and  _771
REMARK  292  A    between atoms: _770  and  _773
REMARK  293  A    between atoms: _773  and  _774
REMARK  294  A    between atoms: _780  and  _782
REMARK  295  A    between atoms: _782  and  _783
REMARK  296  A    between atoms: _782  and  _785
REMARK  297  A    between atoms: _785  and  _786
REMARK  298  A    between atoms: _786  and  _787
REMARK                            x       y       z     vdW  Elec       q    Type
REMARK                         _______ _______ _______ _____ _____    ______ ____
ROOT
ATOM      1  CB  GLN A   1       7.931 -24.386 -14.002  0.00  0.00    +0.035 C 
ENDROOT
BRANCH   1   2
ATOM      2  CA  GLN A   1       7.653 -25.262 -12.780  0.00  0.00    +0.134 C 
BRANCH   2   3
ATOM      3  N   GLN A   1       6.878 -24.565 -11.745  0.00  0.00    -0.239 NA
ATOM      4  H   GLN A   1       6.674 -23.549 -11.830  0.00  0.00    +0.142 HD
ENDBRANCH   2   3
BRANCH   2   5
ATOM      5  C   GLN A   1       8.940 -25.922 -12.262  0.00  0.00    +0.224 C 
ATOM      6  O   GLN A   1       9.350 -26.971 -12.775  0.00  0.00    -0.287 OA
ENDBRANCH   2   5
ENDBRANCH   1   2
BRANCH   1   7
ATOM      7  CG  GLN A   1       8.828 -23.171 -13.761  0.00  0.00    +0.087 C 
BRANCH   7   8
ATOM      8  CD  GLN A   1       8.820 -22.268 -14.972  0.00  0.00    +0.219 C 
ATOM      9  NE2 GLN A   1       7.709 -21.576 -15.201  0.00  0.00    -0.329 N 
ATOM     10 HE21 GLN A   1       6.915 -21.631 -14.532  0.00  0.00    +0.145 HD
ATOM     11 HE22 GLN A   1       7.633 -20.980 -16.050  0.00  0.00    +0.145 HD
ATOM     12  OE1 GLN A   1       9.776 -22.239 -15.722  0.00  0.00    -0.275 OA
ENDBRANCH   7   8
ENDBRANCH   1   7
TORSDOF 5
REMARK  Name = ../refined-set-2016/4ca6/4ca6_pocket.pdb
REMARK  298 active torsions:
REMARK  status: ('A' for Active; 'I' for Inactive)
REMARK    1  A    between atoms: _1  and  _3
REMARK    2  A    between atoms: _3  and  _4
REMARK    3  A    between atoms: _3  and  _6
REMARK    4  A    between atoms: _6  and  _7
REMARK    5  A    between atoms: _10  and  _12
REMARK    6  A    between atoms: _12  and  _13
REMARK    7  A    between atoms: _12  and  _15
REMARK    8  A    between atoms: _15  and  _16
REMARK    9  A    between atoms: _18  and  _20
REMARK   10  A    between atoms: _20  and  _21
REMARK   11  A    between atoms: _20  and  _23
REMARK   12  A    between atoms: _23  and  _24
REMARK   13  A    between atoms: _29  and  _30
REMARK   14  A    between atoms: _32  and  _34
REMARK   15  A    between atoms: _34  and  _35
REMARK   16  A    between atoms: _34  and  _37
REMARK   17  A    between atoms: _37  and  _38
REMARK   18  A    between atoms: _48  and  _50
REMARK   19  A    between atoms: _50  and  _51
REMARK   20  A    between atoms: _50  and  _53
REMARK   21  A    between atoms: _53  and  _54
REMARK   22  A    between atoms: _57  and  _59
REMARK   23  A    between atoms: _59  and  _60
REMARK   24  A    between atoms: _59  and  _62
REMARK   25  A    between atoms: _62  and  _63
REMARK   26  A    between atoms: _73  and  _75
REMARK   27  A    between atoms: _75  and  _76
REMARK   28  A    between atoms: _75  and  _78
REMARK   29  A    between atoms: _78  and  _79
REMARK   30  A    between atoms: _79  and  _80
REMARK   31  A    between atoms: _85  and  _87
REMARK   32  A    between atoms: _87  and  _88
REMARK   33  A    between atoms: _87  and  _90
REMARK   34  A    between atoms: _90  and  _91
REMARK   35  A    between atoms: _93  and  _95
REMARK   36  A    between atoms: _95  and  _96
REMARK   37  A    between atoms: _95  and  _98
REMARK   38  A    between atoms: _98  and  _99
REMARK   39  A    between atoms: _99  and  _100
REMARK   40  A    between atoms: _103  and  _105
REMARK   41  A    between atoms: _105  and  _106
REMARK   42  A    between atoms: _105  and  _108
REMARK   43  A    between atoms: _111  and  _113
REMARK   44  A    between atoms: _113  and  _114
REMARK   45  A    between atoms: _113  and  _116
REMARK   46  A    between atoms: _118  and  _120
REMARK   47  A    between atoms: _120  and  _121
REMARK   48  A    between atoms: _120  and  _123
REMARK   49  A    between atoms: _123  and  _124
REMARK   50  A    between atoms: _129  and  _131
REMARK   51  A    between atoms: _131  and  _132
REMARK   52  A    between atoms: _135  and  _137
REMARK   53  A    between atoms: _137  and  _138
REMARK   54  A    between atoms: _137  and  _140
REMARK   55  A    between atoms: _140  and  _141
REMARK   56  A    between atoms: _143  and  _145
REMARK   57  A    between atoms: _145  and  _146
REMARK   58  A    between atoms: _149  and  _151
REMARK   59  A    between atoms: _151  and  _152
REMARK   60  A    between atoms: _151  and  _154
REMARK   61  A    between atoms: _154  and  _155
REMARK   62  A    between atoms: _165  and  _167
REMARK   63  A    between atoms: _167  and  _168
REMARK   64  A    between atoms: _167  and  _170
REMARK   65  A    between atoms: _170  and  _171
REMARK   66  A    between atoms: _174  and  _176
REMARK   67  A    between atoms: _176  and  _177
REMARK   68  A    between atoms: _176  and  _179
REMARK   69  A    between atoms: _179  and  _180
REMARK   70  A    between atoms: _185  and  _186
REMARK   71  A    between atoms: _188  and  _190
REMARK   72  A    between atoms: _190  and  _191
REMARK   73  A    between atoms: _190  and  _193
REMARK   74  A    between atoms: _193  and  _194
REMARK   75  A    between atoms: _194  and  _195
REMARK   76  A    between atoms: _195  and  _196
REMARK   77  A    between atoms: _205  and  _207
REMARK   78  A    between atoms: _207  and  _208
REMARK   79  A    between atoms: _207  and  _210
REMARK   80  A    between atoms: _210  and  _211
REMARK   81  A    between atoms: _214  and  _216
REMARK   82  A    between atoms: _216  and  _217
REMARK   83  A    between atoms: _216  and  _219
REMARK   84  A    between atoms: _219  and  _220
REMARK   85  A    between atoms: _220  and  _221
REMARK   86  A    between atoms: _221  and  _222
REMARK   87  A    between atoms: _222  and  _223
REMARK   88  A    between atoms: _227  and  _229
REMARK   89  A    between atoms: _229  and  _230
REMARK   90  A    between atoms: _229  and  _232
REMARK   91  A    between atoms: _232  and  _233
REMARK   92  A    between atoms: _233  and  _234
REMARK   93  A    between atoms: _239  and  _241
REMARK   94  A    between atoms: _241  and  _242
REMARK   95  A    between atoms: _241  and  _244
REMARK   96  A    between atoms: _244  and  _245
REMARK   97  A    between atoms: _245  and  _246
REMARK   98  A    between atoms: _246  and  _247
REMARK   99  A    between atoms: _256  and  _258
REMARK  100  A    between atoms: _258  and  _259
REMARK  101  A    between atoms: _258  and  _261
REMARK  102  A    between atoms: _261  and  _262
REMARK  103  A    between atoms: _262  and  _263
REMARK  104  A    between atoms: _265  and  _267
REMARK  105  A    between atoms: _267  and  _268
REMARK  106  A    between atoms: _267  and  _270
REMARK  107  A    between atoms: _270  and  _271
REMARK  108  A    between atoms: _274  and  _276
REMARK  109  A    between atoms: _276  and  _277
REMARK  110  A    between atoms: _276  and  _279
REMARK  111  A    between atoms: _279  and  _280
REMARK  112  A    between atoms: _280  and  _281
REMARK  113  A    between atoms: _286  and  _288
REMARK  114  A    between atoms: _288  and  _289
REMARK  115  A    between atoms: _288  and  _291
REMARK  116  A    between atoms: _291  and  _292
REMARK  117  A    between atoms: _295  and  _297
REMARK  118  A    between atoms: _297  and  _298
REMARK  119  A    between atoms: _297  and  _300
REMARK  120  A    between atoms: _300  and  _301
REMARK  121  A    between atoms: _303  and  _305
REMARK  122  A    between atoms: _305  and  _306
REMARK  123  A    between atoms: _305  and  _308
REMARK  124  A    between atoms: _308  and  _309
REMARK  125  A    between atoms: _312  and  _314
REMARK  126  A    between atoms: _314  and  _315
REMARK  127  A    between atoms: _314  and  _317
REMARK  128  A    between atoms: _320  and  _322
REMARK  129  A    between atoms: _322  and  _323
REMARK  130  A    between atoms: _322  and  _325
REMARK  131  A    between atoms: _325  and  _326
REMARK  132  A    between atoms: _331  and  _333
REMARK  133  A    between atoms: _344  and  _347
REMARK  134  A    between atoms: _347  and  _348
REMARK  135  A    between atoms: _348  and  _349
REMARK  136  A    between atoms: _354  and  _357
REMARK  137  A    between atoms: _357  and  _358
REMARK  138  A    between atoms: _358  and  _359
REMARK  139  A    between atoms: _368  and  _369
REMARK  140  A    between atoms: _377  and  _379
REMARK  141  A    between atoms: _379  and  _380
REMARK  142  A    between atoms: _379  and  _382
REMARK  143  A    between atoms: _382  and  _383
REMARK  144  A    between atoms: _386  and  _388
REMARK  145  A    between atoms: _388  and  _389
REMARK  146  A    between atoms: _388  and  _391
REMARK  147  A    between atoms: _391  and  _392
REMARK  148  A    between atoms: _397  and  _398
REMARK  149  A    between atoms: _400  and  _402
REMARK  150  A    between atoms: _402  and  _403
REMARK  151  A    between atoms: _402  and  _405
REMARK  152  A    between atoms: _405  and  _406
REMARK  153  A    between atoms: _411  and  _412
REMARK  154  A    between atoms: _414  and  _416
REMARK  155  A    between atoms: _416  and  _417
REMARK  156  A    between atoms: _416  and  _419
REMARK  157  A    between atoms: _419  and  _420
REMARK  158  A    between atoms: _425  and  _426
REMARK  159  A    between atoms: _428  and  _430
REMARK  160  A    between atoms: _430  and  _431
REMARK  161  A    between atoms: _430  and  _433
REMARK  162  A    between atoms: _433  and  _434
REMARK  163  A    between atoms: _434  and  _435
REMARK  164  A    between atoms: _435  and  _436
REMARK  165  A    between atoms: _445  and  _447
REMARK  166  A    between atoms: _447  and  _448
REMARK  167  A    between atoms: _447  and  _450
REMARK  168  A    between atoms: _450  and  _451
REMARK  169  A    between atoms: _451  and  _452
REMARK  170  A    between atoms: _452  and  _453
REMARK  171  A    between atoms: _462  and  _464
REMARK  172  A    between atoms: _464  and  _465
REMARK  173  A    between atoms: _467  and  _469
REMARK  174  A    between atoms: _469  and  _470
REMARK  175  A    between atoms: _473  and  _475
REMARK  176  A    between atoms: _475  and  _476
REMARK  177  A    between atoms: _475  and  _478
REMARK  178  A    between atoms: _478  and  _479
REMARK  179  A    between atoms: _485  and  _486
REMARK  180  A    between atoms: _491  and  _493
REMARK  181  A    between atoms: _493  and  _494
REMARK  182  A    between atoms: _496  and  _498
REMARK  183  A    between atoms: _498  and  _499
REMARK  184  A    between atoms: _498  and  _501
REMARK  185  A    between atoms: _501  and  _502
REMARK  186  A    between atoms: _508  and  _510
REMARK  187  A    between atoms: _510  and  _511
REMARK  188  A    between atoms: _510  and  _513
REMARK  189  A    between atoms: _513  and  _514
REMARK  190  A    between atoms: _519  and  _521
REMARK  191  A    between atoms: _521  and  _522
REMARK  192  A    between atoms: _521  and  _524
REMARK  193  A    between atoms: _524  and  _525
REMARK  194  A    between atoms: _525  and  _526
REMARK  195  A    between atoms: _526  and  _527
REMARK  196  A    between atoms: _527  and  ZN_792
REMARK  197  A    between atoms: _529  and  _531
REMARK  198  A    between atoms: _531  and  _532
REMARK  199  A    between atoms: _535  and  _537
REMARK  200  A    between atoms: _537  and  _538
REMARK  201  A    between atoms: _540  and  _542
REMARK  202  A    between atoms: _542  and  _543
REMARK  203  A    between atoms: _542  and  _545
REMARK  204  A    between atoms: _545  and  _546
REMARK  205  A    between atoms: _549  and  _551
REMARK  206  A    between atoms: _551  and  _552
REMARK  207  A    between atoms: _551  and  _554
REMARK  208  A    between atoms: _557  and  _559
REMARK  209  A    between atoms: _559  and  _560
REMARK  210  A    between atoms: _563  and  _565
REMARK  211  A    between atoms: _565  and  _566
REMARK  212  A    between atoms: _565  and  _568
REMARK  213  A    between atoms: _568  and  _569
REMARK  214  A    between atoms: _572  and  _574
REMARK  215  A    between atoms: _574  and  _575
REMARK  216  A    between atoms: _574  and  _577
REMARK  217  A    between atoms: _577  and  _578
REMARK  218  A    between atoms: _578  and  _579
REMARK  219  A    between atoms: _582  and  _584
REMARK  220  A    between atoms: _584  and  _585
REMARK  221  A    between atoms: _584  and  _587
REMARK  222  A    between atoms: _587  and  _588
REMARK  223  A    between atoms: _588  and  _589
REMARK  224  A    between atoms: _589  and  _590
REMARK  225  A    between atoms: _590  and  _591
REMARK  226  A    between atoms: _595  and  _597
REMARK  227  A    between atoms: _597  and  _598
REMARK  228  A    between atoms: _597  and  _600
REMARK  229  A    between atoms: _600  and  _601
REMARK  230  A    between atoms: _607  and  _609
REMARK  231  A    between atoms: _609  and  _610
REMARK  232  A    between atoms: _609  and  _612
REMARK  233  A    between atoms: _612  and  _613
REMARK  234  A    between atoms: _619  and  _621
REMARK  235  A    between atoms: _621  and  _622
REMARK  236  A    between atoms: _624  and  _626
REMARK  237  A    between atoms: _626  and  _627
REMARK  238  A    between atoms: _626  and  _629
REMARK  239  A    between atoms: _632  and  _634
REMARK  240  A    between atoms: _634  and  _635
REMARK  241  A    between atoms: _634  and  _637
REMARK  242  A    between atoms: _637  and  _638
REMARK  243  A    between atoms: _638  and  _639
REMARK  244  A    between atoms: _639  and  _640
REMARK  245  A    between atoms: _640  and  _641
REMARK  246  A    between atoms: _645  and  _647
REMARK  247  A    between atoms: _647  and  _648
REMARK  248  A    between atoms: _647  and  _650
REMARK  249  A    between atoms: _650  and  _651
REMARK  250  A    between atoms: _657  and  _659
REMARK  251  A    between atoms: _659  and  _660
REMARK  252  A    between atoms: _659  and  _662
REMARK  253  A    between atoms: _662  and  _663
REMARK  254  A    between atoms: _668  and  _670
REMARK  255  A    between atoms: _670  and  _671
REMARK  256  A    between atoms: _670  and  _673
REMARK  257  A    between atoms: _673  and  _674
REMARK  258  A    between atoms: _679  and  _681
REMARK  259  A    between atoms: _681  and  _682
REMARK  260  A    between atoms: _681  and  _684
REMARK  261  A    between atoms: _687  and  _689
REMARK  262  A    between atoms: _689  and  _690
REMARK  263  A    between atoms: _689  and  _692
REMARK  264  A    between atoms: _692  and  _693
REMARK  265  A    between atoms: _697  and  _698
REMARK  266  A    between atoms: _703  and  _705
REMARK  267  A    between atoms: _705  and  _706
REMARK  268  A    between atoms: _705  and  _708
REMARK  269  A    between atoms: _708  and  _709
REMARK  270  A    between atoms: _714  and  _715
REMARK  271  A    between atoms: _717  and  _719
REMARK  272  A    between atoms: _719  and  _720
REMARK  273  A    between atoms: _719  and  _722
REMARK  274  A    between atoms: _722  and  _723
REMARK  275  A    between atoms: _723  and  _724
REMARK  276  A    between atoms: _724  and  _725
REMARK  277  A    between atoms: _734  and  _736
REMARK  278  A    between atoms: _736  and  _737
REMARK  279  A    between atoms: _736  and  _739
REMARK  280  A    between atoms: _739  and  _740
REMARK  281  A    between atoms: _745  and  _746
REMARK  282  A    between atoms: _748  and  _750
REMARK  283  A    between atoms: _750  and  _751
REMARK  284  A    between atoms: _750  and  _753
REMARK  285  A    between atoms: _753  and  _754
REMARK  286  A    between atoms: _760  and  _762
REMARK  287  A    between atoms: _762  and  _763
REMARK  288  A    between atoms: _762  and  _765
REMARK  289  A    between atoms: _765  and  _766
REMARK  290  A    between atoms: _768  and  _770
REMARK  291  A    between atoms: _770  and  _771
REMARK  292  A    between atoms: _770  and  _773
REMARK  293  A    between atoms: _773  and  _774
REMARK  294  A    between atoms: _780  and  _782
REMARK  295  A    between atoms: _782  and  _783
REMARK  296  A    between atoms: _782  and  _785
REMARK  297  A    between atoms: _785  and  _786
REMARK  298  A    between atoms: _786  and  _787
REMARK                            x       y       z     vdW  Elec       q    Type
REMARK                         _______ _______ _______ _____ _____    ______ ____
ROOT
ATOM      1  O   HOH     1     -12.849 -12.561 -27.712  0.00  0.00    +0.000 OA
ENDROOT
TORSDOF 0
REMARK  Name = ../refined-set-2016/4ca6/4ca6_pocket.pdb
REMARK  298 active torsions:
REMARK  status: ('A' for Active; 'I' for Inactive)
REMARK    1  A    between atoms: _1  and  _3
REMARK    2  A    between atoms: _3  and  _4
REMARK    3  A    between atoms: _3  and  _6
REMARK    4  A    between atoms: _6  and  _7
REMARK    5  A    between atoms: _10  and  _12
REMARK    6  A    between atoms: _12  and  _13
REMARK    7  A    between atoms: _12  and  _15
REMARK    8  A    between atoms: _15  and  _16
REMARK    9  A    between atoms: _18  and  _20
REMARK   10  A    between atoms: _20  and  _21
REMARK   11  A    between atoms: _20  and  _23
REMARK   12  A    between atoms: _23  and  _24
REMARK   13  A    between atoms: _29  and  _30
REMARK   14  A    between atoms: _32  and  _34
REMARK   15  A    between atoms: _34  and  _35
REMARK   16  A    between atoms: _34  and  _37
REMARK   17  A    between atoms: _37  and  _38
REMARK   18  A    between atoms: _48  and  _50
REMARK   19  A    between atoms: _50  and  _51
REMARK   20  A    between atoms: _50  and  _53
REMARK   21  A    between atoms: _53  and  _54
REMARK   22  A    between atoms: _57  and  _59
REMARK   23  A    between atoms: _59  and  _60
REMARK   24  A    between atoms: _59  and  _62
REMARK   25  A    between atoms: _62  and  _63
REMARK   26  A    between atoms: _73  and  _75
REMARK   27  A    between atoms: _75  and  _76
REMARK   28  A    between atoms: _75  and  _78
REMARK   29  A    between atoms: _78  and  _79
REMARK   30  A    between atoms: _79  and  _80
REMARK   31  A    between atoms: _85  and  _87
REMARK   32  A    between atoms: _87  and  _88
REMARK   33  A    between atoms: _87  and  _90
REMARK   34  A    between atoms: _90  and  _91
REMARK   35  A    between atoms: _93  and  _95
REMARK   36  A    between atoms: _95  and  _96
REMARK   37  A    between atoms: _95  and  _98
REMARK   38  A    between atoms: _98  and  _99
REMARK   39  A    between atoms: _99  and  _100
REMARK   40  A    between atoms: _103  and  _105
REMARK   41  A    between atoms: _105  and  _106
REMARK   42  A    between atoms: _105  and  _108
REMARK   43  A    between atoms: _111  and  _113
REMARK   44  A    between atoms: _113  and  _114
REMARK   45  A    between atoms: _113  and  _116
REMARK   46  A    between atoms: _118  and  _120
REMARK   47  A    between atoms: _120  and  _121
REMARK   48  A    between atoms: _120  and  _123
REMARK   49  A    between atoms: _123  and  _124
REMARK   50  A    between atoms: _129  and  _131
REMARK   51  A    between atoms: _131  and  _132
REMARK   52  A    between atoms: _135  and  _137
REMARK   53  A    between atoms: _137  and  _138
REMARK   54  A    between atoms: _137  and  _140
REMARK   55  A    between atoms: _140  and  _141
REMARK   56  A    between atoms: _143  and  _145
REMARK   57  A    between atoms: _145  and  _146
REMARK   58  A    between atoms: _149  and  _151
REMARK   59  A    between atoms: _151  and  _152
REMARK   60  A    between atoms: _151  and  _154
REMARK   61  A    between atoms: _154  and  _155
REMARK   62  A    between atoms: _165  and  _167
REMARK   63  A    between atoms: _167  and  _168
REMARK   64  A    between atoms: _167  and  _170
REMARK   65  A    between atoms: _170  and  _171
REMARK   66  A    between atoms: _174  and  _176
REMARK   67  A    between atoms: _176  and  _177
REMARK   68  A    between atoms: _176  and  _179
REMARK   69  A    between atoms: _179  and  _180
REMARK   70  A    between atoms: _185  and  _186
REMARK   71  A    between atoms: _188  and  _190
REMARK   72  A    between atoms: _190  and  _191
REMARK   73  A    between atoms: _190  and  _193
REMARK   74  A    between atoms: _193  and  _194
REMARK   75  A    between atoms: _194  and  _195
REMARK   76  A    between atoms: _195  and  _196
REMARK   77  A    between atoms: _205  and  _207
REMARK   78  A    between atoms: _207  and  _208
REMARK   79  A    between atoms: _207  and  _210
REMARK   80  A    between atoms: _210  and  _211
REMARK   81  A    between atoms: _214  and  _216
REMARK   82  A    between atoms: _216  and  _217
REMARK   83  A    between atoms: _216  and  _219
REMARK   84  A    between atoms: _219  and  _220
REMARK   85  A    between atoms: _220  and  _221
REMARK   86  A    between atoms: _221  and  _222
REMARK   87  A    between atoms: _222  and  _223
REMARK   88  A    between atoms: _227  and  _229
REMARK   89  A    between atoms: _229  and  _230
REMARK   90  A    between atoms: _229  and  _232
REMARK   91  A    between atoms: _232  and  _233
REMARK   92  A    between atoms: _233  and  _234
REMARK   93  A    between atoms: _239  and  _241
REMARK   94  A    between atoms: _241  and  _242
REMARK   95  A    between atoms: _241  and  _244
REMARK   96  A    between atoms: _244  and  _245
REMARK   97  A    between atoms: _245  and  _246
REMARK   98  A    between atoms: _246  and  _247
REMARK   99  A    between atoms: _256  and  _258
REMARK  100  A    between atoms: _258  and  _259
REMARK  101  A    between atoms: _258  and  _261
REMARK  102  A    between atoms: _261  and  _262
REMARK  103  A    between atoms: _262  and  _263
REMARK  104  A    between atoms: _265  and  _267
REMARK  105  A    between atoms: _267  and  _268
REMARK  106  A    between atoms: _267  and  _270
REMARK  107  A    between atoms: _270  and  _271
REMARK  108  A    between atoms: _274  and  _276
REMARK  109  A    between atoms: _276  and  _277
REMARK  110  A    between atoms: _276  and  _279
REMARK  111  A    between atoms: _279  and  _280
REMARK  112  A    between atoms: _280  and  _281
REMARK  113  A    between atoms: _286  and  _288
REMARK  114  A    between atoms: _288  and  _289
REMARK  115  A    between atoms: _288  and  _291
REMARK  116  A    between atoms: _291  and  _292
REMARK  117  A    between atoms: _295  and  _297
REMARK  118  A    between atoms: _297  and  _298
REMARK  119  A    between atoms: _297  and  _300
REMARK  120  A    between atoms: _300  and  _301
REMARK  121  A    between atoms: _303  and  _305
REMARK  122  A    between atoms: _305  and  _306
REMARK  123  A    between atoms: _305  and  _308
REMARK  124  A    between atoms: _308  and  _309
REMARK  125  A    between atoms: _312  and  _314
REMARK  126  A    between atoms: _314  and  _315
REMARK  127  A    between atoms: _314  and  _317
REMARK  128  A    between atoms: _320  and  _322
REMARK  129  A    between atoms: _322  and  _323
REMARK  130  A    between atoms: _322  and  _325
REMARK  131  A    between atoms: _325  and  _326
REMARK  132  A    between atoms: _331  and  _333
REMARK  133  A    between atoms: _344  and  _347
REMARK  134  A    between atoms: _347  and  _348
REMARK  135  A    between atoms: _348  and  _349
REMARK  136  A    between atoms: _354  and  _357
REMARK  137  A    between atoms: _357  and  _358
REMARK  138  A    between atoms: _358  and  _359
REMARK  139  A    between atoms: _368  and  _369
REMARK  140  A    between atoms: _377  and  _379
REMARK  141  A    between atoms: _379  and  _380
REMARK  142  A    between atoms: _379  and  _382
REMARK  143  A    between atoms: _382  and  _383
REMARK  144  A    between atoms: _386  and  _388
REMARK  145  A    between atoms: _388  and  _389
REMARK  146  A    between atoms: _388  and  _391
REMARK  147  A    between atoms: _391  and  _392
REMARK  148  A    between atoms: _397  and  _398
REMARK  149  A    between atoms: _400  and  _402
REMARK  150  A    between atoms: _402  and  _403
REMARK  151  A    between atoms: _402  and  _405
REMARK  152  A    between atoms: _405  and  _406
REMARK  153  A    between atoms: _411  and  _412
REMARK  154  A    between atoms: _414  and  _416
REMARK  155  A    between atoms: _416  and  _417
REMARK  156  A    between atoms: _416  and  _419
REMARK  157  A    between atoms: _419  and  _420
REMARK  158  A    between atoms: _425  and  _426
REMARK  159  A    between atoms: _428  and  _430
REMARK  160  A    between atoms: _430  and  _431
REMARK  161  A    between atoms: _430  and  _433
REMARK  162  A    between atoms: _433  and  _434
REMARK  163  A    between atoms: _434  and  _435
REMARK  164  A    between atoms: _435  and  _436
REMARK  165  A    between atoms: _445  and  _447
REMARK  166  A    between atoms: _447  and  _448
REMARK  167  A    between atoms: _447  and  _450
REMARK  168  A    between atoms: _450  and  _451
REMARK  169  A    between atoms: _451  and  _452
REMARK  170  A    between atoms: _452  and  _453
REMARK  171  A    between atoms: _462  and  _464
REMARK  172  A    between atoms: _464  and  _465
REMARK  173  A    between atoms: _467  and  _469
REMARK  174  A    between atoms: _469  and  _470
REMARK  175  A    between atoms: _473  and  _475
REMARK  176  A    between atoms: _475  and  _476
REMARK  177  A    between atoms: _475  and  _478
REMARK  178  A    between atoms: _478  and  _479
REMARK  179  A    between atoms: _485  and  _486
REMARK  180  A    between atoms: _491  and  _493
REMARK  181  A    between atoms: _493  and  _494
REMARK  182  A    between atoms: _496  and  _498
REMARK  183  A    between atoms: _498  and  _499
REMARK  184  A    between atoms: _498  and  _501
REMARK  185  A    between atoms: _501  and  _502
REMARK  186  A    between atoms: _508  and  _510
REMARK  187  A    between atoms: _510  and  _511
REMARK  188  A    between atoms: _510  and  _513
REMARK  189  A    between atoms: _513  and  _514
REMARK  190  A    between atoms: _519  and  _521
REMARK  191  A    between atoms: _521  and  _522
REMARK  192  A    between atoms: _521  and  _524
REMARK  193  A    between atoms: _524  and  _525
REMARK  194  A    between atoms: _525  and  _526
REMARK  195  A    between atoms: _526  and  _527
REMARK  196  A    between atoms: _527  and  ZN_792
REMARK  197  A    between atoms: _529  and  _531
REMARK  198  A    between atoms: _531  and  _532
REMARK  199  A    between atoms: _535  and  _537
REMARK  200  A    between atoms: _537  and  _538
REMARK  201  A    between atoms: _540  and  _542
REMARK  202  A    between atoms: _542  and  _543
REMARK  203  A    between atoms: _542  and  _545
REMARK  204  A    between atoms: _545  and  _546
REMARK  205  A    between atoms: _549  and  _551
REMARK  206  A    between atoms: _551  and  _552
REMARK  207  A    between atoms: _551  and  _554
REMARK  208  A    between atoms: _557  and  _559
REMARK  209  A    between atoms: _559  and  _560
REMARK  210  A    between atoms: _563  and  _565
REMARK  211  A    between atoms: _565  and  _566
REMARK  212  A    between atoms: _565  and  _568
REMARK  213  A    between atoms: _568  and  _569
REMARK  214  A    between atoms: _572  and  _574
REMARK  215  A    between atoms: _574  and  _575
REMARK  216  A    between atoms: _574  and  _577
REMARK  217  A    between atoms: _577  and  _578
REMARK  218  A    between atoms: _578  and  _579
REMARK  219  A    between atoms: _582  and  _584
REMARK  220  A    between atoms: _584  and  _585
REMARK  221  A    between atoms: _584  and  _587
REMARK  222  A    between atoms: _587  and  _588
REMARK  223  A    between atoms: _588  and  _589
REMARK  224  A    between atoms: _589  and  _590
REMARK  225  A    between atoms: _590  and  _591
REMARK  226  A    between atoms: _595  and  _597
REMARK  227  A    between atoms: _597  and  _598
REMARK  228  A    between atoms: _597  and  _600
REMARK  229  A    between atoms: _600  and  _601
REMARK  230  A    between atoms: _607  and  _609
REMARK  231  A    between atoms: _609  and  _610
REMARK  232  A    between atoms: _609  and  _612
REMARK  233  A    between atoms: _612  and  _613
REMARK  234  A    between atoms: _619  and  _621
REMARK  235  A    between atoms: _621  and  _622
REMARK  236  A    between atoms: _624  and  _626
REMARK  237  A    between atoms: _626  and  _627
REMARK  238  A    between atoms: _626  and  _629
REMARK  239  A    between atoms: _632  and  _634
REMARK  240  A    between atoms: _634  and  _635
REMARK  241  A    between atoms: _634  and  _637
REMARK  242  A    between atoms: _637  and  _638
REMARK  243  A    between atoms: _638  and  _639
REMARK  244  A    between atoms: _639  and  _640
REMARK  245  A    between atoms: _640  and  _641
REMARK  246  A    between atoms: _645  and  _647
REMARK  247  A    between atoms: _647  and  _648
REMARK  248  A    between atoms: _647  and  _650
REMARK  249  A    between atoms: _650  and  _651
REMARK  250  A    between atoms: _657  and  _659
REMARK  251  A    between atoms: _659  and  _660
REMARK  252  A    between atoms: _659  and  _662
REMARK  253  A    between atoms: _662  and  _663
REMARK  254  A    between atoms: _668  and  _670
REMARK  255  A    between atoms: _670  and  _671
REMARK  256  A    between atoms: _670  and  _673
REMARK  257  A    between atoms: _673  and  _674
REMARK  258  A    between atoms: _679  and  _681
REMARK  259  A    between atoms: _681  and  _682
REMARK  260  A    between atoms: _681  and  _684
REMARK  261  A    between atoms: _687  and  _689
REMARK  262  A    between atoms: _689  and  _690
REMARK  263  A    between atoms: _689  and  _692
REMARK  264  A    between atoms: _692  and  _693
REMARK  265  A    between atoms: _697  and  _698
REMARK  266  A    between atoms: _703  and  _705
REMARK  267  A    between atoms: _705  and  _706
REMARK  268  A    between atoms: _705  and  _708
REMARK  269  A    between atoms: _708  and  _709
REMARK  270  A    between atoms: _714  and  _715
REMARK  271  A    between atoms: _717  and  _719
REMARK  272  A    between atoms: _719  and  _720
REMARK  273  A    between atoms: _719  and  _722
REMARK  274  A    between atoms: _722  and  _723
REMARK  275  A    between atoms: _723  and  _724
REMARK  276  A    between atoms: _724  and  _725
REMARK  277  A    between atoms: _734  and  _736
REMARK  278  A    between atoms: _736  and  _737
REMARK  279  A    between atoms: _736  and  _739
REMARK  280  A    between atoms: _739  and  _740
REMARK  281  A    between atoms: _745  and  _746
REMARK  282  A    between atoms: _748  and  _750
REMARK  283  A    between atoms: _750  and  _751
REMARK  284  A    between atoms: _750  and  _753
REMARK  285  A    between atoms: _753  and  _754
REMARK  286  A    between atoms: _760  and  _762
REMARK  287  A    between atoms: _762  and  _763
REMARK  288  A    between atoms: _762  and  _765
REMARK  289  A    between atoms: _765  and  _766
REMARK  290  A    between atoms: _768  and  _770
REMARK  291  A    between atoms: _770  and  _771
REMARK  292  A    between atoms: _770  and  _773
REMARK  293  A    between atoms: _773  and  _774
REMARK  294  A    between atoms: _780  and  _782
REMARK  295  A    between atoms: _782  and  _783
REMARK  296  A    between atoms: _782  and  _785
REMARK  297  A    between atoms: _785  and  _786
REMARK  298  A    between atoms: _786  and  _787
REMARK                            x       y       z     vdW  Elec       q    Type
REMARK                         _______ _______ _______ _____ _____    ______ ____
ROOT
ATOM      1  O   HOH     1     -11.392  -9.792 -23.774  0.00  0.00    +0.000 OA
ENDROOT
TORSDOF 0
REMARK  Name = ../refined-set-2016/4ca6/4ca6_pocket.pdb
REMARK  298 active torsions:
REMARK  status: ('A' for Active; 'I' for Inactive)
REMARK    1  A    between atoms: _1  and  _3
REMARK    2  A    between atoms: _3  and  _4
REMARK    3  A    between atoms: _3  and  _6
REMARK    4  A    between atoms: _6  and  _7
REMARK    5  A    between atoms: _10  and  _12
REMARK    6  A    between atoms: _12  and  _13
REMARK    7  A    between atoms: _12  and  _15
REMARK    8  A    between atoms: _15  and  _16
REMARK    9  A    between atoms: _18  and  _20
REMARK   10  A    between atoms: _20  and  _21
REMARK   11  A    between atoms: _20  and  _23
REMARK   12  A    between atoms: _23  and  _24
REMARK   13  A    between atoms: _29  and  _30
REMARK   14  A    between atoms: _32  and  _34
REMARK   15  A    between atoms: _34  and  _35
REMARK   16  A    between atoms: _34  and  _37
REMARK   17  A    between atoms: _37  and  _38
REMARK   18  A    between atoms: _48  and  _50
REMARK   19  A    between atoms: _50  and  _51
REMARK   20  A    between atoms: _50  and  _53
REMARK   21  A    between atoms: _53  and  _54
REMARK   22  A    between atoms: _57  and  _59
REMARK   23  A    between atoms: _59  and  _60
REMARK   24  A    between atoms: _59  and  _62
REMARK   25  A    between atoms: _62  and  _63
REMARK   26  A    between atoms: _73  and  _75
REMARK   27  A    between atoms: _75  and  _76
REMARK   28  A    between atoms: _75  and  _78
REMARK   29  A    between atoms: _78  and  _79
REMARK   30  A    between atoms: _79  and  _80
REMARK   31  A    between atoms: _85  and  _87
REMARK   32  A    between atoms: _87  and  _88
REMARK   33  A    between atoms: _87  and  _90
REMARK   34  A    between atoms: _90  and  _91
REMARK   35  A    between atoms: _93  and  _95
REMARK   36  A    between atoms: _95  and  _96
REMARK   37  A    between atoms: _95  and  _98
REMARK   38  A    between atoms: _98  and  _99
REMARK   39  A    between atoms: _99  and  _100
REMARK   40  A    between atoms: _103  and  _105
REMARK   41  A    between atoms: _105  and  _106
REMARK   42  A    between atoms: _105  and  _108
REMARK   43  A    between atoms: _111  and  _113
REMARK   44  A    between atoms: _113  and  _114
REMARK   45  A    between atoms: _113  and  _116
REMARK   46  A    between atoms: _118  and  _120
REMARK   47  A    between atoms: _120  and  _121
REMARK   48  A    between atoms: _120  and  _123
REMARK   49  A    between atoms: _123  and  _124
REMARK   50  A    between atoms: _129  and  _131
REMARK   51  A    between atoms: _131  and  _132
REMARK   52  A    between atoms: _135  and  _137
REMARK   53  A    between atoms: _137  and  _138
REMARK   54  A    between atoms: _137  and  _140
REMARK   55  A    between atoms: _140  and  _141
REMARK   56  A    between atoms: _143  and  _145
REMARK   57  A    between atoms: _145  and  _146
REMARK   58  A    between atoms: _149  and  _151
REMARK   59  A    between atoms: _151  and  _152
REMARK   60  A    between atoms: _151  and  _154
REMARK   61  A    between atoms: _154  and  _155
REMARK   62  A    between atoms: _165  and  _167
REMARK   63  A    between atoms: _167  and  _168
REMARK   64  A    between atoms: _167  and  _170
REMARK   65  A    between atoms: _170  and  _171
REMARK   66  A    between atoms: _174  and  _176
REMARK   67  A    between atoms: _176  and  _177
REMARK   68  A    between atoms: _176  and  _179
REMARK   69  A    between atoms: _179  and  _180
REMARK   70  A    between atoms: _185  and  _186
REMARK   71  A    between atoms: _188  and  _190
REMARK   72  A    between atoms: _190  and  _191
REMARK   73  A    between atoms: _190  and  _193
REMARK   74  A    between atoms: _193  and  _194
REMARK   75  A    between atoms: _194  and  _195
REMARK   76  A    between atoms: _195  and  _196
REMARK   77  A    between atoms: _205  and  _207
REMARK   78  A    between atoms: _207  and  _208
REMARK   79  A    between atoms: _207  and  _210
REMARK   80  A    between atoms: _210  and  _211
REMARK   81  A    between atoms: _214  and  _216
REMARK   82  A    between atoms: _216  and  _217
REMARK   83  A    between atoms: _216  and  _219
REMARK   84  A    between atoms: _219  and  _220
REMARK   85  A    between atoms: _220  and  _221
REMARK   86  A    between atoms: _221  and  _222
REMARK   87  A    between atoms: _222  and  _223
REMARK   88  A    between atoms: _227  and  _229
REMARK   89  A    between atoms: _229  and  _230
REMARK   90  A    between atoms: _229  and  _232
REMARK   91  A    between atoms: _232  and  _233
REMARK   92  A    between atoms: _233  and  _234
REMARK   93  A    between atoms: _239  and  _241
REMARK   94  A    between atoms: _241  and  _242
REMARK   95  A    between atoms: _241  and  _244
REMARK   96  A    between atoms: _244  and  _245
REMARK   97  A    between atoms: _245  and  _246
REMARK   98  A    between atoms: _246  and  _247
REMARK   99  A    between atoms: _256  and  _258
REMARK  100  A    between atoms: _258  and  _259
REMARK  101  A    between atoms: _258  and  _261
REMARK  102  A    between atoms: _261  and  _262
REMARK  103  A    between atoms: _262  and  _263
REMARK  104  A    between atoms: _265  and  _267
REMARK  105  A    between atoms: _267  and  _268
REMARK  106  A    between atoms: _267  and  _270
REMARK  107  A    between atoms: _270  and  _271
REMARK  108  A    between atoms: _274  and  _276
REMARK  109  A    between atoms: _276  and  _277
REMARK  110  A    between atoms: _276  and  _279
REMARK  111  A    between atoms: _279  and  _280
REMARK  112  A    between atoms: _280  and  _281
REMARK  113  A    between atoms: _286  and  _288
REMARK  114  A    between atoms: _288  and  _289
REMARK  115  A    between atoms: _288  and  _291
REMARK  116  A    between atoms: _291  and  _292
REMARK  117  A    between atoms: _295  and  _297
REMARK  118  A    between atoms: _297  and  _298
REMARK  119  A    between atoms: _297  and  _300
REMARK  120  A    between atoms: _300  and  _301
REMARK  121  A    between atoms: _303  and  _305
REMARK  122  A    between atoms: _305  and  _306
REMARK  123  A    between atoms: _305  and  _308
REMARK  124  A    between atoms: _308  and  _309
REMARK  125  A    between atoms: _312  and  _314
REMARK  126  A    between atoms: _314  and  _315
REMARK  127  A    between atoms: _314  and  _317
REMARK  128  A    between atoms: _320  and  _322
REMARK  129  A    between atoms: _322  and  _323
REMARK  130  A    between atoms: _322  and  _325
REMARK  131  A    between atoms: _325  and  _326
REMARK  132  A    between atoms: _331  and  _333
REMARK  133  A    between atoms: _344  and  _347
REMARK  134  A    between atoms: _347  and  _348
REMARK  135  A    between atoms: _348  and  _349
REMARK  136  A    between atoms: _354  and  _357
REMARK  137  A    between atoms: _357  and  _358
REMARK  138  A    between atoms: _358  and  _359
REMARK  139  A    between atoms: _368  and  _369
REMARK  140  A    between atoms: _377  and  _379
REMARK  141  A    between atoms: _379  and  _380
REMARK  142  A    between atoms: _379  and  _382
REMARK  143  A    between atoms: _382  and  _383
REMARK  144  A    between atoms: _386  and  _388
REMARK  145  A    between atoms: _388  and  _389
REMARK  146  A    between atoms: _388  and  _391
REMARK  147  A    between atoms: _391  and  _392
REMARK  148  A    between atoms: _397  and  _398
REMARK  149  A    between atoms: _400  and  _402
REMARK  150  A    between atoms: _402  and  _403
REMARK  151  A    between atoms: _402  and  _405
REMARK  152  A    between atoms: _405  and  _406
REMARK  153  A    between atoms: _411  and  _412
REMARK  154  A    between atoms: _414  and  _416
REMARK  155  A    between atoms: _416  and  _417
REMARK  156  A    between atoms: _416  and  _419
REMARK  157  A    between atoms: _419  and  _420
REMARK  158  A    between atoms: _425  and  _426
REMARK  159  A    between atoms: _428  and  _430
REMARK  160  A    between atoms: _430  and  _431
REMARK  161  A    between atoms: _430  and  _433
REMARK  162  A    between atoms: _433  and  _434
REMARK  163  A    between atoms: _434  and  _435
REMARK  164  A    between atoms: _435  and  _436
REMARK  165  A    between atoms: _445  and  _447
REMARK  166  A    between atoms: _447  and  _448
REMARK  167  A    between atoms: _447  and  _450
REMARK  168  A    between atoms: _450  and  _451
REMARK  169  A    between atoms: _451  and  _452
REMARK  170  A    between atoms: _452  and  _453
REMARK  171  A    between atoms: _462  and  _464
REMARK  172  A    between atoms: _464  and  _465
REMARK  173  A    between atoms: _467  and  _469
REMARK  174  A    between atoms: _469  and  _470
REMARK  175  A    between atoms: _473  and  _475
REMARK  176  A    between atoms: _475  and  _476
REMARK  177  A    between atoms: _475  and  _478
REMARK  178  A    between atoms: _478  and  _479
REMARK  179  A    between atoms: _485  and  _486
REMARK  180  A    between atoms: _491  and  _493
REMARK  181  A    between atoms: _493  and  _494
REMARK  182  A    between atoms: _496  and  _498
REMARK  183  A    between atoms: _498  and  _499
REMARK  184  A    between atoms: _498  and  _501
REMARK  185  A    between atoms: _501  and  _502
REMARK  186  A    between atoms: _508  and  _510
REMARK  187  A    between atoms: _510  and  _511
REMARK  188  A    between atoms: _510  and  _513
REMARK  189  A    between atoms: _513  and  _514
REMARK  190  A    between atoms: _519  and  _521
REMARK  191  A    between atoms: _521  and  _522
REMARK  192  A    between atoms: _521  and  _524
REMARK  193  A    between atoms: _524  and  _525
REMARK  194  A    between atoms: _525  and  _526
REMARK  195  A    between atoms: _526  and  _527
REMARK  196  A    between atoms: _527  and  ZN_792
REMARK  197  A    between atoms: _529  and  _531
REMARK  198  A    between atoms: _531  and  _532
REMARK  199  A    between atoms: _535  and  _537
REMARK  200  A    between atoms: _537  and  _538
REMARK  201  A    between atoms: _540  and  _542
REMARK  202  A    between atoms: _542  and  _543
REMARK  203  A    between atoms: _542  and  _545
REMARK  204  A    between atoms: _545  and  _546
REMARK  205  A    between atoms: _549  and  _551
REMARK  206  A    between atoms: _551  and  _552
REMARK  207  A    between atoms: _551  and  _554
REMARK  208  A    between atoms: _557  and  _559
REMARK  209  A    between atoms: _559  and  _560
REMARK  210  A    between atoms: _563  and  _565
REMARK  211  A    between atoms: _565  and  _566
REMARK  212  A    between atoms: _565  and  _568
REMARK  213  A    between atoms: _568  and  _569
REMARK  214  A    between atoms: _572  and  _574
REMARK  215  A    between atoms: _574  and  _575
REMARK  216  A    between atoms: _574  and  _577
REMARK  217  A    between atoms: _577  and  _578
REMARK  218  A    between atoms: _578  and  _579
REMARK  219  A    between atoms: _582  and  _584
REMARK  220  A    between atoms: _584  and  _585
REMARK  221  A    between atoms: _584  and  _587
REMARK  222  A    between atoms: _587  and  _588
REMARK  223  A    between atoms: _588  and  _589
REMARK  224  A    between atoms: _589  and  _590
REMARK  225  A    between atoms: _590  and  _591
REMARK  226  A    between atoms: _595  and  _597
REMARK  227  A    between atoms: _597  and  _598
REMARK  228  A    between atoms: _597  and  _600
REMARK  229  A    between atoms: _600  and  _601
REMARK  230  A    between atoms: _607  and  _609
REMARK  231  A    between atoms: _609  and  _610
REMARK  232  A    between atoms: _609  and  _612
REMARK  233  A    between atoms: _612  and  _613
REMARK  234  A    between atoms: _619  and  _621
REMARK  235  A    between atoms: _621  and  _622
REMARK  236  A    between atoms: _624  and  _626
REMARK  237  A    between atoms: _626  and  _627
REMARK  238  A    between atoms: _626  and  _629
REMARK  239  A    between atoms: _632  and  _634
REMARK  240  A    between atoms: _634  and  _635
REMARK  241  A    between atoms: _634  and  _637
REMARK  242  A    between atoms: _637  and  _638
REMARK  243  A    between atoms: _638  and  _639
REMARK  244  A    between atoms: _639  and  _640
REMARK  245  A    between atoms: _640  and  _641
REMARK  246  A    between atoms: _645  and  _647
REMARK  247  A    between atoms: _647  and  _648
REMARK  248  A    between atoms: _647  and  _650
REMARK  249  A    between atoms: _650  and  _651
REMARK  250  A    between atoms: _657  and  _659
REMARK  251  A    between atoms: _659  and  _660
REMARK  252  A    between atoms: _659  and  _662
REMARK  253  A    between atoms: _662  and  _663
REMARK  254  A    between atoms: _668  and  _670
REMARK  255  A    between atoms: _670  and  _671
REMARK  256  A    between atoms: _670  and  _673
REMARK  257  A    between atoms: _673  and  _674
REMARK  258  A    between atoms: _679  and  _681
REMARK  259  A    between atoms: _681  and  _682
REMARK  260  A    between atoms: _681  and  _684
REMARK  261  A    between atoms: _687  and  _689
REMARK  262  A    between atoms: _689  and  _690
REMARK  263  A    between atoms: _689  and  _692
REMARK  264  A    between atoms: _692  and  _693
REMARK  265  A    between atoms: _697  and  _698
REMARK  266  A    between atoms: _703  and  _705
REMARK  267  A    between atoms: _705  and  _706
REMARK  268  A    between atoms: _705  and  _708
REMARK  269  A    between atoms: _708  and  _709
REMARK  270  A    between atoms: _714  and  _715
REMARK  271  A    between atoms: _717  and  _719
REMARK  272  A    between atoms: _719  and  _720
REMARK  273  A    between atoms: _719  and  _722
REMARK  274  A    between atoms: _722  and  _723
REMARK  275  A    between atoms: _723  and  _724
REMARK  276  A    between atoms: _724  and  _725
REMARK  277  A    between atoms: _734  and  _736
REMARK  278  A    between atoms: _736  and  _737
REMARK  279  A    between atoms: _736  and  _739
REMARK  280  A    between atoms: _739  and  _740
REMARK  281  A    between atoms: _745  and  _746
REMARK  282  A    between atoms: _748  and  _750
REMARK  283  A    between atoms: _750  and  _751
REMARK  284  A    between atoms: _750  and  _753
REMARK  285  A    between atoms: _753  and  _754
REMARK  286  A    between atoms: _760  and  _762
REMARK  287  A    between atoms: _762  and  _763
REMARK  288  A    between atoms: _762  and  _765
REMARK  289  A    between atoms: _765  and  _766
REMARK  290  A    between atoms: _768  and  _770
REMARK  291  A    between atoms: _770  and  _771
REMARK  292  A    between atoms: _770  and  _773
REMARK  293  A    between atoms: _773  and  _774
REMARK  294  A    between atoms: _780  and  _782
REMARK  295  A    between atoms: _782  and  _783
REMARK  296  A    between atoms: _782  and  _785
REMARK  297  A    between atoms: _785  and  _786
REMARK  298  A    between atoms: _786  and  _787
REMARK                            x       y       z     vdW  Elec       q    Type
REMARK                         _______ _______ _______ _____ _____    ______ ____
ROOT
ATOM      1  O   HOH     1      -9.660 -10.046 -28.607  0.00  0.00    +0.000 OA
ENDROOT
TORSDOF 0
REMARK  Name = ../refined-set-2016/4ca6/4ca6_pocket.pdb
REMARK  298 active torsions:
REMARK  status: ('A' for Active; 'I' for Inactive)
REMARK    1  A    between atoms: _1  and  _3
REMARK    2  A    between atoms: _3  and  _4
REMARK    3  A    between atoms: _3  and  _6
REMARK    4  A    between atoms: _6  and  _7
REMARK    5  A    between atoms: _10  and  _12
REMARK    6  A    between atoms: _12  and  _13
REMARK    7  A    between atoms: _12  and  _15
REMARK    8  A    between atoms: _15  and  _16
REMARK    9  A    between atoms: _18  and  _20
REMARK   10  A    between atoms: _20  and  _21
REMARK   11  A    between atoms: _20  and  _23
REMARK   12  A    between atoms: _23  and  _24
REMARK   13  A    between atoms: _29  and  _30
REMARK   14  A    between atoms: _32  and  _34
REMARK   15  A    between atoms: _34  and  _35
REMARK   16  A    between atoms: _34  and  _37
REMARK   17  A    between atoms: _37  and  _38
REMARK   18  A    between atoms: _48  and  _50
REMARK   19  A    between atoms: _50  and  _51
REMARK   20  A    between atoms: _50  and  _53
REMARK   21  A    between atoms: _53  and  _54
REMARK   22  A    between atoms: _57  and  _59
REMARK   23  A    between atoms: _59  and  _60
REMARK   24  A    between atoms: _59  and  _62
REMARK   25  A    between atoms: _62  and  _63
REMARK   26  A    between atoms: _73  and  _75
REMARK   27  A    between atoms: _75  and  _76
REMARK   28  A    between atoms: _75  and  _78
REMARK   29  A    between atoms: _78  and  _79
REMARK   30  A    between atoms: _79  and  _80
REMARK   31  A    between atoms: _85  and  _87
REMARK   32  A    between atoms: _87  and  _88
REMARK   33  A    between atoms: _87  and  _90
REMARK   34  A    between atoms: _90  and  _91
REMARK   35  A    between atoms: _93  and  _95
REMARK   36  A    between atoms: _95  and  _96
REMARK   37  A    between atoms: _95  and  _98
REMARK   38  A    between atoms: _98  and  _99
REMARK   39  A    between atoms: _99  and  _100
REMARK   40  A    between atoms: _103  and  _105
REMARK   41  A    between atoms: _105  and  _106
REMARK   42  A    between atoms: _105  and  _108
REMARK   43  A    between atoms: _111  and  _113
REMARK   44  A    between atoms: _113  and  _114
REMARK   45  A    between atoms: _113  and  _116
REMARK   46  A    between atoms: _118  and  _120
REMARK   47  A    between atoms: _120  and  _121
REMARK   48  A    between atoms: _120  and  _123
REMARK   49  A    between atoms: _123  and  _124
REMARK   50  A    between atoms: _129  and  _131
REMARK   51  A    between atoms: _131  and  _132
REMARK   52  A    between atoms: _135  and  _137
REMARK   53  A    between atoms: _137  and  _138
REMARK   54  A    between atoms: _137  and  _140
REMARK   55  A    between atoms: _140  and  _141
REMARK   56  A    between atoms: _143  and  _145
REMARK   57  A    between atoms: _145  and  _146
REMARK   58  A    between atoms: _149  and  _151
REMARK   59  A    between atoms: _151  and  _152
REMARK   60  A    between atoms: _151  and  _154
REMARK   61  A    between atoms: _154  and  _155
REMARK   62  A    between atoms: _165  and  _167
REMARK   63  A    between atoms: _167  and  _168
REMARK   64  A    between atoms: _167  and  _170
REMARK   65  A    between atoms: _170  and  _171
REMARK   66  A    between atoms: _174  and  _176
REMARK   67  A    between atoms: _176  and  _177
REMARK   68  A    between atoms: _176  and  _179
REMARK   69  A    between atoms: _179  and  _180
REMARK   70  A    between atoms: _185  and  _186
REMARK   71  A    between atoms: _188  and  _190
REMARK   72  A    between atoms: _190  and  _191
REMARK   73  A    between atoms: _190  and  _193
REMARK   74  A    between atoms: _193  and  _194
REMARK   75  A    between atoms: _194  and  _195
REMARK   76  A    between atoms: _195  and  _196
REMARK   77  A    between atoms: _205  and  _207
REMARK   78  A    between atoms: _207  and  _208
REMARK   79  A    between atoms: _207  and  _210
REMARK   80  A    between atoms: _210  and  _211
REMARK   81  A    between atoms: _214  and  _216
REMARK   82  A    between atoms: _216  and  _217
REMARK   83  A    between atoms: _216  and  _219
REMARK   84  A    between atoms: _219  and  _220
REMARK   85  A    between atoms: _220  and  _221
REMARK   86  A    between atoms: _221  and  _222
REMARK   87  A    between atoms: _222  and  _223
REMARK   88  A    between atoms: _227  and  _229
REMARK   89  A    between atoms: _229  and  _230
REMARK   90  A    between atoms: _229  and  _232
REMARK   91  A    between atoms: _232  and  _233
REMARK   92  A    between atoms: _233  and  _234
REMARK   93  A    between atoms: _239  and  _241
REMARK   94  A    between atoms: _241  and  _242
REMARK   95  A    between atoms: _241  and  _244
REMARK   96  A    between atoms: _244  and  _245
REMARK   97  A    between atoms: _245  and  _246
REMARK   98  A    between atoms: _246  and  _247
REMARK   99  A    between atoms: _256  and  _258
REMARK  100  A    between atoms: _258  and  _259
REMARK  101  A    between atoms: _258  and  _261
REMARK  102  A    between atoms: _261  and  _262
REMARK  103  A    between atoms: _262  and  _263
REMARK  104  A    between atoms: _265  and  _267
REMARK  105  A    between atoms: _267  and  _268
REMARK  106  A    between atoms: _267  and  _270
REMARK  107  A    between atoms: _270  and  _271
REMARK  108  A    between atoms: _274  and  _276
REMARK  109  A    between atoms: _276  and  _277
REMARK  110  A    between atoms: _276  and  _279
REMARK  111  A    between atoms: _279  and  _280
REMARK  112  A    between atoms: _280  and  _281
REMARK  113  A    between atoms: _286  and  _288
REMARK  114  A    between atoms: _288  and  _289
REMARK  115  A    between atoms: _288  and  _291
REMARK  116  A    between atoms: _291  and  _292
REMARK  117  A    between atoms: _295  and  _297
REMARK  118  A    between atoms: _297  and  _298
REMARK  119  A    between atoms: _297  and  _300
REMARK  120  A    between atoms: _300  and  _301
REMARK  121  A    between atoms: _303  and  _305
REMARK  122  A    between atoms: _305  and  _306
REMARK  123  A    between atoms: _305  and  _308
REMARK  124  A    between atoms: _308  and  _309
REMARK  125  A    between atoms: _312  and  _314
REMARK  126  A    between atoms: _314  and  _315
REMARK  127  A    between atoms: _314  and  _317
REMARK  128  A    between atoms: _320  and  _322
REMARK  129  A    between atoms: _322  and  _323
REMARK  130  A    between atoms: _322  and  _325
REMARK  131  A    between atoms: _325  and  _326
REMARK  132  A    between atoms: _331  and  _333
REMARK  133  A    between atoms: _344  and  _347
REMARK  134  A    between atoms: _347  and  _348
REMARK  135  A    between atoms: _348  and  _349
REMARK  136  A    between atoms: _354  and  _357
REMARK  137  A    between atoms: _357  and  _358
REMARK  138  A    between atoms: _358  and  _359
REMARK  139  A    between atoms: _368  and  _369
REMARK  140  A    between atoms: _377  and  _379
REMARK  141  A    between atoms: _379  and  _380
REMARK  142  A    between atoms: _379  and  _382
REMARK  143  A    between atoms: _382  and  _383
REMARK  144  A    between atoms: _386  and  _388
REMARK  145  A    between atoms: _388  and  _389
REMARK  146  A    between atoms: _388  and  _391
REMARK  147  A    between atoms: _391  and  _392
REMARK  148  A    between atoms: _397  and  _398
REMARK  149  A    between atoms: _400  and  _402
REMARK  150  A    between atoms: _402  and  _403
REMARK  151  A    between atoms: _402  and  _405
REMARK  152  A    between atoms: _405  and  _406
REMARK  153  A    between atoms: _411  and  _412
REMARK  154  A    between atoms: _414  and  _416
REMARK  155  A    between atoms: _416  and  _417
REMARK  156  A    between atoms: _416  and  _419
REMARK  157  A    between atoms: _419  and  _420
REMARK  158  A    between atoms: _425  and  _426
REMARK  159  A    between atoms: _428  and  _430
REMARK  160  A    between atoms: _430  and  _431
REMARK  161  A    between atoms: _430  and  _433
REMARK  162  A    between atoms: _433  and  _434
REMARK  163  A    between atoms: _434  and  _435
REMARK  164  A    between atoms: _435  and  _436
REMARK  165  A    between atoms: _445  and  _447
REMARK  166  A    between atoms: _447  and  _448
REMARK  167  A    between atoms: _447  and  _450
REMARK  168  A    between atoms: _450  and  _451
REMARK  169  A    between atoms: _451  and  _452
REMARK  170  A    between atoms: _452  and  _453
REMARK  171  A    between atoms: _462  and  _464
REMARK  172  A    between atoms: _464  and  _465
REMARK  173  A    between atoms: _467  and  _469
REMARK  174  A    between atoms: _469  and  _470
REMARK  175  A    between atoms: _473  and  _475
REMARK  176  A    between atoms: _475  and  _476
REMARK  177  A    between atoms: _475  and  _478
REMARK  178  A    between atoms: _478  and  _479
REMARK  179  A    between atoms: _485  and  _486
REMARK  180  A    between atoms: _491  and  _493
REMARK  181  A    between atoms: _493  and  _494
REMARK  182  A    between atoms: _496  and  _498
REMARK  183  A    between atoms: _498  and  _499
REMARK  184  A    between atoms: _498  and  _501
REMARK  185  A    between atoms: _501  and  _502
REMARK  186  A    between atoms: _508  and  _510
REMARK  187  A    between atoms: _510  and  _511
REMARK  188  A    between atoms: _510  and  _513
REMARK  189  A    between atoms: _513  and  _514
REMARK  190  A    between atoms: _519  and  _521
REMARK  191  A    between atoms: _521  and  _522
REMARK  192  A    between atoms: _521  and  _524
REMARK  193  A    between atoms: _524  and  _525
REMARK  194  A    between atoms: _525  and  _526
REMARK  195  A    between atoms: _526  and  _527
REMARK  196  A    between atoms: _527  and  ZN_792
REMARK  197  A    between atoms: _529  and  _531
REMARK  198  A    between atoms: _531  and  _532
REMARK  199  A    between atoms: _535  and  _537
REMARK  200  A    between atoms: _537  and  _538
REMARK  201  A    between atoms: _540  and  _542
REMARK  202  A    between atoms: _542  and  _543
REMARK  203  A    between atoms: _542  and  _545
REMARK  204  A    between atoms: _545  and  _546
REMARK  205  A    between atoms: _549  and  _551
REMARK  206  A    between atoms: _551  and  _552
REMARK  207  A    between atoms: _551  and  _554
REMARK  208  A    between atoms: _557  and  _559
REMARK  209  A    between atoms: _559  and  _560
REMARK  210  A    between atoms: _563  and  _565
REMARK  211  A    between atoms: _565  and  _566
REMARK  212  A    between atoms: _565  and  _568
REMARK  213  A    between atoms: _568  and  _569
REMARK  214  A    between atoms: _572  and  _574
REMARK  215  A    between atoms: _574  and  _575
REMARK  216  A    between atoms: _574  and  _577
REMARK  217  A    between atoms: _577  and  _578
REMARK  218  A    between atoms: _578  and  _579
REMARK  219  A    between atoms: _582  and  _584
REMARK  220  A    between atoms: _584  and  _585
REMARK  221  A    between atoms: _584  and  _587
REMARK  222  A    between atoms: _587  and  _588
REMARK  223  A    between atoms: _588  and  _589
REMARK  224  A    between atoms: _589  and  _590
REMARK  225  A    between atoms: _590  and  _591
REMARK  226  A    between atoms: _595  and  _597
REMARK  227  A    between atoms: _597  and  _598
REMARK  228  A    between atoms: _597  and  _600
REMARK  229  A    between atoms: _600  and  _601
REMARK  230  A    between atoms: _607  and  _609
REMARK  231  A    between atoms: _609  and  _610
REMARK  232  A    between atoms: _609  and  _612
REMARK  233  A    between atoms: _612  and  _613
REMARK  234  A    between atoms: _619  and  _621
REMARK  235  A    between atoms: _621  and  _622
REMARK  236  A    between atoms: _624  and  _626
REMARK  237  A    between atoms: _626  and  _627
REMARK  238  A    between atoms: _626  and  _629
REMARK  239  A    between atoms: _632  and  _634
REMARK  240  A    between atoms: _634  and  _635
REMARK  241  A    between atoms: _634  and  _637
REMARK  242  A    between atoms: _637  and  _638
REMARK  243  A    between atoms: _638  and  _639
REMARK  244  A    between atoms: _639  and  _640
REMARK  245  A    between atoms: _640  and  _641
REMARK  246  A    between atoms: _645  and  _647
REMARK  247  A    between atoms: _647  and  _648
REMARK  248  A    between atoms: _647  and  _650
REMARK  249  A    between atoms: _650  and  _651
REMARK  250  A    between atoms: _657  and  _659
REMARK  251  A    between atoms: _659  and  _660
REMARK  252  A    between atoms: _659  and  _662
REMARK  253  A    between atoms: _662  and  _663
REMARK  254  A    between atoms: _668  and  _670
REMARK  255  A    between atoms: _670  and  _671
REMARK  256  A    between atoms: _670  and  _673
REMARK  257  A    between atoms: _673  and  _674
REMARK  258  A    between atoms: _679  and  _681
REMARK  259  A    between atoms: _681  and  _682
REMARK  260  A    between atoms: _681  and  _684
REMARK  261  A    between atoms: _687  and  _689
REMARK  262  A    between atoms: _689  and  _690
REMARK  263  A    between atoms: _689  and  _692
REMARK  264  A    between atoms: _692  and  _693
REMARK  265  A    between atoms: _697  and  _698
REMARK  266  A    between atoms: _703  and  _705
REMARK  267  A    between atoms: _705  and  _706
REMARK  268  A    between atoms: _705  and  _708
REMARK  269  A    between atoms: _708  and  _709
REMARK  270  A    between atoms: _714  and  _715
REMARK  271  A    between atoms: _717  and  _719
REMARK  272  A    between atoms: _719  and  _720
REMARK  273  A    between atoms: _719  and  _722
REMARK  274  A    between atoms: _722  and  _723
REMARK  275  A    between atoms: _723  and  _724
REMARK  276  A    between atoms: _724  and  _725
REMARK  277  A    between atoms: _734  and  _736
REMARK  278  A    between atoms: _736  and  _737
REMARK  279  A    between atoms: _736  and  _739
REMARK  280  A    between atoms: _739  and  _740
REMARK  281  A    between atoms: _745  and  _746
REMARK  282  A    between atoms: _748  and  _750
REMARK  283  A    between atoms: _750  and  _751
REMARK  284  A    between atoms: _750  and  _753
REMARK  285  A    between atoms: _753  and  _754
REMARK  286  A    between atoms: _760  and  _762
REMARK  287  A    between atoms: _762  and  _763
REMARK  288  A    between atoms: _762  and  _765
REMARK  289  A    between atoms: _765  and  _766
REMARK  290  A    between atoms: _768  and  _770
REMARK  291  A    between atoms: _770  and  _771
REMARK  292  A    between atoms: _770  and  _773
REMARK  293  A    between atoms: _773  and  _774
REMARK  294  A    between atoms: _780  and  _782
REMARK  295  A    between atoms: _782  and  _783
REMARK  296  A    between atoms: _782  and  _785
REMARK  297  A    between atoms: _785  and  _786
REMARK  298  A    between atoms: _786  and  _787
REMARK                            x       y       z     vdW  Elec       q    Type
REMARK                         _______ _______ _______ _____ _____    ______ ____
ROOT
ATOM      1  O   HOH     1      -6.485 -12.682 -27.842  0.00  0.00    +0.000 OA
ENDROOT
TORSDOF 0
REMARK  Name = ../refined-set-2016/4ca6/4ca6_pocket.pdb
REMARK  298 active torsions:
REMARK  status: ('A' for Active; 'I' for Inactive)
REMARK    1  A    between atoms: _1  and  _3
REMARK    2  A    between atoms: _3  and  _4
REMARK    3  A    between atoms: _3  and  _6
REMARK    4  A    between atoms: _6  and  _7
REMARK    5  A    between atoms: _10  and  _12
REMARK    6  A    between atoms: _12  and  _13
REMARK    7  A    between atoms: _12  and  _15
REMARK    8  A    between atoms: _15  and  _16
REMARK    9  A    between atoms: _18  and  _20
REMARK   10  A    between atoms: _20  and  _21
REMARK   11  A    between atoms: _20  and  _23
REMARK   12  A    between atoms: _23  and  _24
REMARK   13  A    between atoms: _29  and  _30
REMARK   14  A    between atoms: _32  and  _34
REMARK   15  A    between atoms: _34  and  _35
REMARK   16  A    between atoms: _34  and  _37
REMARK   17  A    between atoms: _37  and  _38
REMARK   18  A    between atoms: _48  and  _50
REMARK   19  A    between atoms: _50  and  _51
REMARK   20  A    between atoms: _50  and  _53
REMARK   21  A    between atoms: _53  and  _54
REMARK   22  A    between atoms: _57  and  _59
REMARK   23  A    between atoms: _59  and  _60
REMARK   24  A    between atoms: _59  and  _62
REMARK   25  A    between atoms: _62  and  _63
REMARK   26  A    between atoms: _73  and  _75
REMARK   27  A    between atoms: _75  and  _76
REMARK   28  A    between atoms: _75  and  _78
REMARK   29  A    between atoms: _78  and  _79
REMARK   30  A    between atoms: _79  and  _80
REMARK   31  A    between atoms: _85  and  _87
REMARK   32  A    between atoms: _87  and  _88
REMARK   33  A    between atoms: _87  and  _90
REMARK   34  A    between atoms: _90  and  _91
REMARK   35  A    between atoms: _93  and  _95
REMARK   36  A    between atoms: _95  and  _96
REMARK   37  A    between atoms: _95  and  _98
REMARK   38  A    between atoms: _98  and  _99
REMARK   39  A    between atoms: _99  and  _100
REMARK   40  A    between atoms: _103  and  _105
REMARK   41  A    between atoms: _105  and  _106
REMARK   42  A    between atoms: _105  and  _108
REMARK   43  A    between atoms: _111  and  _113
REMARK   44  A    between atoms: _113  and  _114
REMARK   45  A    between atoms: _113  and  _116
REMARK   46  A    between atoms: _118  and  _120
REMARK   47  A    between atoms: _120  and  _121
REMARK   48  A    between atoms: _120  and  _123
REMARK   49  A    between atoms: _123  and  _124
REMARK   50  A    between atoms: _129  and  _131
REMARK   51  A    between atoms: _131  and  _132
REMARK   52  A    between atoms: _135  and  _137
REMARK   53  A    between atoms: _137  and  _138
REMARK   54  A    between atoms: _137  and  _140
REMARK   55  A    between atoms: _140  and  _141
REMARK   56  A    between atoms: _143  and  _145
REMARK   57  A    between atoms: _145  and  _146
REMARK   58  A    between atoms: _149  and  _151
REMARK   59  A    between atoms: _151  and  _152
REMARK   60  A    between atoms: _151  and  _154
REMARK   61  A    between atoms: _154  and  _155
REMARK   62  A    between atoms: _165  and  _167
REMARK   63  A    between atoms: _167  and  _168
REMARK   64  A    between atoms: _167  and  _170
REMARK   65  A    between atoms: _170  and  _171
REMARK   66  A    between atoms: _174  and  _176
REMARK   67  A    between atoms: _176  and  _177
REMARK   68  A    between atoms: _176  and  _179
REMARK   69  A    between atoms: _179  and  _180
REMARK   70  A    between atoms: _185  and  _186
REMARK   71  A    between atoms: _188  and  _190
REMARK   72  A    between atoms: _190  and  _191
REMARK   73  A    between atoms: _190  and  _193
REMARK   74  A    between atoms: _193  and  _194
REMARK   75  A    between atoms: _194  and  _195
REMARK   76  A    between atoms: _195  and  _196
REMARK   77  A    between atoms: _205  and  _207
REMARK   78  A    between atoms: _207  and  _208
REMARK   79  A    between atoms: _207  and  _210
REMARK   80  A    between atoms: _210  and  _211
REMARK   81  A    between atoms: _214  and  _216
REMARK   82  A    between atoms: _216  and  _217
REMARK   83  A    between atoms: _216  and  _219
REMARK   84  A    between atoms: _219  and  _220
REMARK   85  A    between atoms: _220  and  _221
REMARK   86  A    between atoms: _221  and  _222
REMARK   87  A    between atoms: _222  and  _223
REMARK   88  A    between atoms: _227  and  _229
REMARK   89  A    between atoms: _229  and  _230
REMARK   90  A    between atoms: _229  and  _232
REMARK   91  A    between atoms: _232  and  _233
REMARK   92  A    between atoms: _233  and  _234
REMARK   93  A    between atoms: _239  and  _241
REMARK   94  A    between atoms: _241  and  _242
REMARK   95  A    between atoms: _241  and  _244
REMARK   96  A    between atoms: _244  and  _245
REMARK   97  A    between atoms: _245  and  _246
REMARK   98  A    between atoms: _246  and  _247
REMARK   99  A    between atoms: _256  and  _258
REMARK  100  A    between atoms: _258  and  _259
REMARK  101  A    between atoms: _258  and  _261
REMARK  102  A    between atoms: _261  and  _262
REMARK  103  A    between atoms: _262  and  _263
REMARK  104  A    between atoms: _265  and  _267
REMARK  105  A    between atoms: _267  and  _268
REMARK  106  A    between atoms: _267  and  _270
REMARK  107  A    between atoms: _270  and  _271
REMARK  108  A    between atoms: _274  and  _276
REMARK  109  A    between atoms: _276  and  _277
REMARK  110  A    between atoms: _276  and  _279
REMARK  111  A    between atoms: _279  and  _280
REMARK  112  A    between atoms: _280  and  _281
REMARK  113  A    between atoms: _286  and  _288
REMARK  114  A    between atoms: _288  and  _289
REMARK  115  A    between atoms: _288  and  _291
REMARK  116  A    between atoms: _291  and  _292
REMARK  117  A    between atoms: _295  and  _297
REMARK  118  A    between atoms: _297  and  _298
REMARK  119  A    between atoms: _297  and  _300
REMARK  120  A    between atoms: _300  and  _301
REMARK  121  A    between atoms: _303  and  _305
REMARK  122  A    between atoms: _305  and  _306
REMARK  123  A    between atoms: _305  and  _308
REMARK  124  A    between atoms: _308  and  _309
REMARK  125  A    between atoms: _312  and  _314
REMARK  126  A    between atoms: _314  and  _315
REMARK  127  A    between atoms: _314  and  _317
REMARK  128  A    between atoms: _320  and  _322
REMARK  129  A    between atoms: _322  and  _323
REMARK  130  A    between atoms: _322  and  _325
REMARK  131  A    between atoms: _325  and  _326
REMARK  132  A    between atoms: _331  and  _333
REMARK  133  A    between atoms: _344  and  _347
REMARK  134  A    between atoms: _347  and  _348
REMARK  135  A    between atoms: _348  and  _349
REMARK  136  A    between atoms: _354  and  _357
REMARK  137  A    between atoms: _357  and  _358
REMARK  138  A    between atoms: _358  and  _359
REMARK  139  A    between atoms: _368  and  _369
REMARK  140  A    between atoms: _377  and  _379
REMARK  141  A    between atoms: _379  and  _380
REMARK  142  A    between atoms: _379  and  _382
REMARK  143  A    between atoms: _382  and  _383
REMARK  144  A    between atoms: _386  and  _388
REMARK  145  A    between atoms: _388  and  _389
REMARK  146  A    between atoms: _388  and  _391
REMARK  147  A    between atoms: _391  and  _392
REMARK  148  A    between atoms: _397  and  _398
REMARK  149  A    between atoms: _400  and  _402
REMARK  150  A    between atoms: _402  and  _403
REMARK  151  A    between atoms: _402  and  _405
REMARK  152  A    between atoms: _405  and  _406
REMARK  153  A    between atoms: _411  and  _412
REMARK  154  A    between atoms: _414  and  _416
REMARK  155  A    between atoms: _416  and  _417
REMARK  156  A    between atoms: _416  and  _419
REMARK  157  A    between atoms: _419  and  _420
REMARK  158  A    between atoms: _425  and  _426
REMARK  159  A    between atoms: _428  and  _430
REMARK  160  A    between atoms: _430  and  _431
REMARK  161  A    between atoms: _430  and  _433
REMARK  162  A    between atoms: _433  and  _434
REMARK  163  A    between atoms: _434  and  _435
REMARK  164  A    between atoms: _435  and  _436
REMARK  165  A    between atoms: _445  and  _447
REMARK  166  A    between atoms: _447  and  _448
REMARK  167  A    between atoms: _447  and  _450
REMARK  168  A    between atoms: _450  and  _451
REMARK  169  A    between atoms: _451  and  _452
REMARK  170  A    between atoms: _452  and  _453
REMARK  171  A    between atoms: _462  and  _464
REMARK  172  A    between atoms: _464  and  _465
REMARK  173  A    between atoms: _467  and  _469
REMARK  174  A    between atoms: _469  and  _470
REMARK  175  A    between atoms: _473  and  _475
REMARK  176  A    between atoms: _475  and  _476
REMARK  177  A    between atoms: _475  and  _478
REMARK  178  A    between atoms: _478  and  _479
REMARK  179  A    between atoms: _485  and  _486
REMARK  180  A    between atoms: _491  and  _493
REMARK  181  A    between atoms: _493  and  _494
REMARK  182  A    between atoms: _496  and  _498
REMARK  183  A    between atoms: _498  and  _499
REMARK  184  A    between atoms: _498  and  _501
REMARK  185  A    between atoms: _501  and  _502
REMARK  186  A    between atoms: _508  and  _510
REMARK  187  A    between atoms: _510  and  _511
REMARK  188  A    between atoms: _510  and  _513
REMARK  189  A    between atoms: _513  and  _514
REMARK  190  A    between atoms: _519  and  _521
REMARK  191  A    between atoms: _521  and  _522
REMARK  192  A    between atoms: _521  and  _524
REMARK  193  A    between atoms: _524  and  _525
REMARK  194  A    between atoms: _525  and  _526
REMARK  195  A    between atoms: _526  and  _527
REMARK  196  A    between atoms: _527  and  ZN_792
REMARK  197  A    between atoms: _529  and  _531
REMARK  198  A    between atoms: _531  and  _532
REMARK  199  A    between atoms: _535  and  _537
REMARK  200  A    between atoms: _537  and  _538
REMARK  201  A    between atoms: _540  and  _542
REMARK  202  A    between atoms: _542  and  _543
REMARK  203  A    between atoms: _542  and  _545
REMARK  204  A    between atoms: _545  and  _546
REMARK  205  A    between atoms: _549  and  _551
REMARK  206  A    between atoms: _551  and  _552
REMARK  207  A    between atoms: _551  and  _554
REMARK  208  A    between atoms: _557  and  _559
REMARK  209  A    between atoms: _559  and  _560
REMARK  210  A    between atoms: _563  and  _565
REMARK  211  A    between atoms: _565  and  _566
REMARK  212  A    between atoms: _565  and  _568
REMARK  213  A    between atoms: _568  and  _569
REMARK  214  A    between atoms: _572  and  _574
REMARK  215  A    between atoms: _574  and  _575
REMARK  216  A    between atoms: _574  and  _577
REMARK  217  A    between atoms: _577  and  _578
REMARK  218  A    between atoms: _578  and  _579
REMARK  219  A    between atoms: _582  and  _584
REMARK  220  A    between atoms: _584  and  _585
REMARK  221  A    between atoms: _584  and  _587
REMARK  222  A    between atoms: _587  and  _588
REMARK  223  A    between atoms: _588  and  _589
REMARK  224  A    between atoms: _589  and  _590
REMARK  225  A    between atoms: _590  and  _591
REMARK  226  A    between atoms: _595  and  _597
REMARK  227  A    between atoms: _597  and  _598
REMARK  228  A    between atoms: _597  and  _600
REMARK  229  A    between atoms: _600  and  _601
REMARK  230  A    between atoms: _607  and  _609
REMARK  231  A    between atoms: _609  and  _610
REMARK  232  A    between atoms: _609  and  _612
REMARK  233  A    between atoms: _612  and  _613
REMARK  234  A    between atoms: _619  and  _621
REMARK  235  A    between atoms: _621  and  _622
REMARK  236  A    between atoms: _624  and  _626
REMARK  237  A    between atoms: _626  and  _627
REMARK  238  A    between atoms: _626  and  _629
REMARK  239  A    between atoms: _632  and  _634
REMARK  240  A    between atoms: _634  and  _635
REMARK  241  A    between atoms: _634  and  _637
REMARK  242  A    between atoms: _637  and  _638
REMARK  243  A    between atoms: _638  and  _639
REMARK  244  A    between atoms: _639  and  _640
REMARK  245  A    between atoms: _640  and  _641
REMARK  246  A    between atoms: _645  and  _647
REMARK  247  A    between atoms: _647  and  _648
REMARK  248  A    between atoms: _647  and  _650
REMARK  249  A    between atoms: _650  and  _651
REMARK  250  A    between atoms: _657  and  _659
REMARK  251  A    between atoms: _659  and  _660
REMARK  252  A    between atoms: _659  and  _662
REMARK  253  A    between atoms: _662  and  _663
REMARK  254  A    between atoms: _668  and  _670
REMARK  255  A    between atoms: _670  and  _671
REMARK  256  A    between atoms: _670  and  _673
REMARK  257  A    between atoms: _673  and  _674
REMARK  258  A    between atoms: _679  and  _681
REMARK  259  A    between atoms: _681  and  _682
REMARK  260  A    between atoms: _681  and  _684
REMARK  261  A    between atoms: _687  and  _689
REMARK  262  A    between atoms: _689  and  _690
REMARK  263  A    between atoms: _689  and  _692
REMARK  264  A    between atoms: _692  and  _693
REMARK  265  A    between atoms: _697  and  _698
REMARK  266  A    between atoms: _703  and  _705
REMARK  267  A    between atoms: _705  and  _706
REMARK  268  A    between atoms: _705  and  _708
REMARK  269  A    between atoms: _708  and  _709
REMARK  270  A    between atoms: _714  and  _715
REMARK  271  A    between atoms: _717  and  _719
REMARK  272  A    between atoms: _719  and  _720
REMARK  273  A    between atoms: _719  and  _722
REMARK  274  A    between atoms: _722  and  _723
REMARK  275  A    between atoms: _723  and  _724
REMARK  276  A    between atoms: _724  and  _725
REMARK  277  A    between atoms: _734  and  _736
REMARK  278  A    between atoms: _736  and  _737
REMARK  279  A    between atoms: _736  and  _739
REMARK  280  A    between atoms: _739  and  _740
REMARK  281  A    between atoms: _745  and  _746
REMARK  282  A    between atoms: _748  and  _750
REMARK  283  A    between atoms: _750  and  _751
REMARK  284  A    between atoms: _750  and  _753
REMARK  285  A    between atoms: _753  and  _754
REMARK  286  A    between atoms: _760  and  _762
REMARK  287  A    between atoms: _762  and  _763
REMARK  288  A    between atoms: _762  and  _765
REMARK  289  A    between atoms: _765  and  _766
REMARK  290  A    between atoms: _768  and  _770
REMARK  291  A    between atoms: _770  and  _771
REMARK  292  A    between atoms: _770  and  _773
REMARK  293  A    between atoms: _773  and  _774
REMARK  294  A    between atoms: _780  and  _782
REMARK  295  A    between atoms: _782  and  _783
REMARK  296  A    between atoms: _782  and  _785
REMARK  297  A    between atoms: _785  and  _786
REMARK  298  A    between atoms: _786  and  _787
REMARK                            x       y       z     vdW  Elec       q    Type
REMARK                         _______ _______ _______ _____ _____    ______ ____
ROOT
ATOM      1  O   HOH     1      -5.558  -7.315 -27.798  0.00  0.00    +0.000 OA
ENDROOT
TORSDOF 0
REMARK  Name = ../refined-set-2016/4ca6/4ca6_pocket.pdb
REMARK  298 active torsions:
REMARK  status: ('A' for Active; 'I' for Inactive)
REMARK    1  A    between atoms: _1  and  _3
REMARK    2  A    between atoms: _3  and  _4
REMARK    3  A    between atoms: _3  and  _6
REMARK    4  A    between atoms: _6  and  _7
REMARK    5  A    between atoms: _10  and  _12
REMARK    6  A    between atoms: _12  and  _13
REMARK    7  A    between atoms: _12  and  _15
REMARK    8  A    between atoms: _15  and  _16
REMARK    9  A    between atoms: _18  and  _20
REMARK   10  A    between atoms: _20  and  _21
REMARK   11  A    between atoms: _20  and  _23
REMARK   12  A    between atoms: _23  and  _24
REMARK   13  A    between atoms: _29  and  _30
REMARK   14  A    between atoms: _32  and  _34
REMARK   15  A    between atoms: _34  and  _35
REMARK   16  A    between atoms: _34  and  _37
REMARK   17  A    between atoms: _37  and  _38
REMARK   18  A    between atoms: _48  and  _50
REMARK   19  A    between atoms: _50  and  _51
REMARK   20  A    between atoms: _50  and  _53
REMARK   21  A    between atoms: _53  and  _54
REMARK   22  A    between atoms: _57  and  _59
REMARK   23  A    between atoms: _59  and  _60
REMARK   24  A    between atoms: _59  and  _62
REMARK   25  A    between atoms: _62  and  _63
REMARK   26  A    between atoms: _73  and  _75
REMARK   27  A    between atoms: _75  and  _76
REMARK   28  A    between atoms: _75  and  _78
REMARK   29  A    between atoms: _78  and  _79
REMARK   30  A    between atoms: _79  and  _80
REMARK   31  A    between atoms: _85  and  _87
REMARK   32  A    between atoms: _87  and  _88
REMARK   33  A    between atoms: _87  and  _90
REMARK   34  A    between atoms: _90  and  _91
REMARK   35  A    between atoms: _93  and  _95
REMARK   36  A    between atoms: _95  and  _96
REMARK   37  A    between atoms: _95  and  _98
REMARK   38  A    between atoms: _98  and  _99
REMARK   39  A    between atoms: _99  and  _100
REMARK   40  A    between atoms: _103  and  _105
REMARK   41  A    between atoms: _105  and  _106
REMARK   42  A    between atoms: _105  and  _108
REMARK   43  A    between atoms: _111  and  _113
REMARK   44  A    between atoms: _113  and  _114
REMARK   45  A    between atoms: _113  and  _116
REMARK   46  A    between atoms: _118  and  _120
REMARK   47  A    between atoms: _120  and  _121
REMARK   48  A    between atoms: _120  and  _123
REMARK   49  A    between atoms: _123  and  _124
REMARK   50  A    between atoms: _129  and  _131
REMARK   51  A    between atoms: _131  and  _132
REMARK   52  A    between atoms: _135  and  _137
REMARK   53  A    between atoms: _137  and  _138
REMARK   54  A    between atoms: _137  and  _140
REMARK   55  A    between atoms: _140  and  _141
REMARK   56  A    between atoms: _143  and  _145
REMARK   57  A    between atoms: _145  and  _146
REMARK   58  A    between atoms: _149  and  _151
REMARK   59  A    between atoms: _151  and  _152
REMARK   60  A    between atoms: _151  and  _154
REMARK   61  A    between atoms: _154  and  _155
REMARK   62  A    between atoms: _165  and  _167
REMARK   63  A    between atoms: _167  and  _168
REMARK   64  A    between atoms: _167  and  _170
REMARK   65  A    between atoms: _170  and  _171
REMARK   66  A    between atoms: _174  and  _176
REMARK   67  A    between atoms: _176  and  _177
REMARK   68  A    between atoms: _176  and  _179
REMARK   69  A    between atoms: _179  and  _180
REMARK   70  A    between atoms: _185  and  _186
REMARK   71  A    between atoms: _188  and  _190
REMARK   72  A    between atoms: _190  and  _191
REMARK   73  A    between atoms: _190  and  _193
REMARK   74  A    between atoms: _193  and  _194
REMARK   75  A    between atoms: _194  and  _195
REMARK   76  A    between atoms: _195  and  _196
REMARK   77  A    between atoms: _205  and  _207
REMARK   78  A    between atoms: _207  and  _208
REMARK   79  A    between atoms: _207  and  _210
REMARK   80  A    between atoms: _210  and  _211
REMARK   81  A    between atoms: _214  and  _216
REMARK   82  A    between atoms: _216  and  _217
REMARK   83  A    between atoms: _216  and  _219
REMARK   84  A    between atoms: _219  and  _220
REMARK   85  A    between atoms: _220  and  _221
REMARK   86  A    between atoms: _221  and  _222
REMARK   87  A    between atoms: _222  and  _223
REMARK   88  A    between atoms: _227  and  _229
REMARK   89  A    between atoms: _229  and  _230
REMARK   90  A    between atoms: _229  and  _232
REMARK   91  A    between atoms: _232  and  _233
REMARK   92  A    between atoms: _233  and  _234
REMARK   93  A    between atoms: _239  and  _241
REMARK   94  A    between atoms: _241  and  _242
REMARK   95  A    between atoms: _241  and  _244
REMARK   96  A    between atoms: _244  and  _245
REMARK   97  A    between atoms: _245  and  _246
REMARK   98  A    between atoms: _246  and  _247
REMARK   99  A    between atoms: _256  and  _258
REMARK  100  A    between atoms: _258  and  _259
REMARK  101  A    between atoms: _258  and  _261
REMARK  102  A    between atoms: _261  and  _262
REMARK  103  A    between atoms: _262  and  _263
REMARK  104  A    between atoms: _265  and  _267
REMARK  105  A    between atoms: _267  and  _268
REMARK  106  A    between atoms: _267  and  _270
REMARK  107  A    between atoms: _270  and  _271
REMARK  108  A    between atoms: _274  and  _276
REMARK  109  A    between atoms: _276  and  _277
REMARK  110  A    between atoms: _276  and  _279
REMARK  111  A    between atoms: _279  and  _280
REMARK  112  A    between atoms: _280  and  _281
REMARK  113  A    between atoms: _286  and  _288
REMARK  114  A    between atoms: _288  and  _289
REMARK  115  A    between atoms: _288  and  _291
REMARK  116  A    between atoms: _291  and  _292
REMARK  117  A    between atoms: _295  and  _297
REMARK  118  A    between atoms: _297  and  _298
REMARK  119  A    between atoms: _297  and  _300
REMARK  120  A    between atoms: _300  and  _301
REMARK  121  A    between atoms: _303  and  _305
REMARK  122  A    between atoms: _305  and  _306
REMARK  123  A    between atoms: _305  and  _308
REMARK  124  A    between atoms: _308  and  _309
REMARK  125  A    between atoms: _312  and  _314
REMARK  126  A    between atoms: _314  and  _315
REMARK  127  A    between atoms: _314  and  _317
REMARK  128  A    between atoms: _320  and  _322
REMARK  129  A    between atoms: _322  and  _323
REMARK  130  A    between atoms: _322  and  _325
REMARK  131  A    between atoms: _325  and  _326
REMARK  132  A    between atoms: _331  and  _333
REMARK  133  A    between atoms: _344  and  _347
REMARK  134  A    between atoms: _347  and  _348
REMARK  135  A    between atoms: _348  and  _349
REMARK  136  A    between atoms: _354  and  _357
REMARK  137  A    between atoms: _357  and  _358
REMARK  138  A    between atoms: _358  and  _359
REMARK  139  A    between atoms: _368  and  _369
REMARK  140  A    between atoms: _377  and  _379
REMARK  141  A    between atoms: _379  and  _380
REMARK  142  A    between atoms: _379  and  _382
REMARK  143  A    between atoms: _382  and  _383
REMARK  144  A    between atoms: _386  and  _388
REMARK  145  A    between atoms: _388  and  _389
REMARK  146  A    between atoms: _388  and  _391
REMARK  147  A    between atoms: _391  and  _392
REMARK  148  A    between atoms: _397  and  _398
REMARK  149  A    between atoms: _400  and  _402
REMARK  150  A    between atoms: _402  and  _403
REMARK  151  A    between atoms: _402  and  _405
REMARK  152  A    between atoms: _405  and  _406
REMARK  153  A    between atoms: _411  and  _412
REMARK  154  A    between atoms: _414  and  _416
REMARK  155  A    between atoms: _416  and  _417
REMARK  156  A    between atoms: _416  and  _419
REMARK  157  A    between atoms: _419  and  _420
REMARK  158  A    between atoms: _425  and  _426
REMARK  159  A    between atoms: _428  and  _430
REMARK  160  A    between atoms: _430  and  _431
REMARK  161  A    between atoms: _430  and  _433
REMARK  162  A    between atoms: _433  and  _434
REMARK  163  A    between atoms: _434  and  _435
REMARK  164  A    between atoms: _435  and  _436
REMARK  165  A    between atoms: _445  and  _447
REMARK  166  A    between atoms: _447  and  _448
REMARK  167  A    between atoms: _447  and  _450
REMARK  168  A    between atoms: _450  and  _451
REMARK  169  A    between atoms: _451  and  _452
REMARK  170  A    between atoms: _452  and  _453
REMARK  171  A    between atoms: _462  and  _464
REMARK  172  A    between atoms: _464  and  _465
REMARK  173  A    between atoms: _467  and  _469
REMARK  174  A    between atoms: _469  and  _470
REMARK  175  A    between atoms: _473  and  _475
REMARK  176  A    between atoms: _475  and  _476
REMARK  177  A    between atoms: _475  and  _478
REMARK  178  A    between atoms: _478  and  _479
REMARK  179  A    between atoms: _485  and  _486
REMARK  180  A    between atoms: _491  and  _493
REMARK  181  A    between atoms: _493  and  _494
REMARK  182  A    between atoms: _496  and  _498
REMARK  183  A    between atoms: _498  and  _499
REMARK  184  A    between atoms: _498  and  _501
REMARK  185  A    between atoms: _501  and  _502
REMARK  186  A    between atoms: _508  and  _510
REMARK  187  A    between atoms: _510  and  _511
REMARK  188  A    between atoms: _510  and  _513
REMARK  189  A    between atoms: _513  and  _514
REMARK  190  A    between atoms: _519  and  _521
REMARK  191  A    between atoms: _521  and  _522
REMARK  192  A    between atoms: _521  and  _524
REMARK  193  A    between atoms: _524  and  _525
REMARK  194  A    between atoms: _525  and  _526
REMARK  195  A    between atoms: _526  and  _527
REMARK  196  A    between atoms: _527  and  ZN_792
REMARK  197  A    between atoms: _529  and  _531
REMARK  198  A    between atoms: _531  and  _532
REMARK  199  A    between atoms: _535  and  _537
REMARK  200  A    between atoms: _537  and  _538
REMARK  201  A    between atoms: _540  and  _542
REMARK  202  A    between atoms: _542  and  _543
REMARK  203  A    between atoms: _542  and  _545
REMARK  204  A    between atoms: _545  and  _546
REMARK  205  A    between atoms: _549  and  _551
REMARK  206  A    between atoms: _551  and  _552
REMARK  207  A    between atoms: _551  and  _554
REMARK  208  A    between atoms: _557  and  _559
REMARK  209  A    between atoms: _559  and  _560
REMARK  210  A    between atoms: _563  and  _565
REMARK  211  A    between atoms: _565  and  _566
REMARK  212  A    between atoms: _565  and  _568
REMARK  213  A    between atoms: _568  and  _569
REMARK  214  A    between atoms: _572  and  _574
REMARK  215  A    between atoms: _574  and  _575
REMARK  216  A    between atoms: _574  and  _577
REMARK  217  A    between atoms: _577  and  _578
REMARK  218  A    between atoms: _578  and  _579
REMARK  219  A    between atoms: _582  and  _584
REMARK  220  A    between atoms: _584  and  _585
REMARK  221  A    between atoms: _584  and  _587
REMARK  222  A    between atoms: _587  and  _588
REMARK  223  A    between atoms: _588  and  _589
REMARK  224  A    between atoms: _589  and  _590
REMARK  225  A    between atoms: _590  and  _591
REMARK  226  A    between atoms: _595  and  _597
REMARK  227  A    between atoms: _597  and  _598
REMARK  228  A    between atoms: _597  and  _600
REMARK  229  A    between atoms: _600  and  _601
REMARK  230  A    between atoms: _607  and  _609
REMARK  231  A    between atoms: _609  and  _610
REMARK  232  A    between atoms: _609  and  _612
REMARK  233  A    between atoms: _612  and  _613
REMARK  234  A    between atoms: _619  and  _621
REMARK  235  A    between atoms: _621  and  _622
REMARK  236  A    between atoms: _624  and  _626
REMARK  237  A    between atoms: _626  and  _627
REMARK  238  A    between atoms: _626  and  _629
REMARK  239  A    between atoms: _632  and  _634
REMARK  240  A    between atoms: _634  and  _635
REMARK  241  A    between atoms: _634  and  _637
REMARK  242  A    between atoms: _637  and  _638
REMARK  243  A    between atoms: _638  and  _639
REMARK  244  A    between atoms: _639  and  _640
REMARK  245  A    between atoms: _640  and  _641
REMARK  246  A    between atoms: _645  and  _647
REMARK  247  A    between atoms: _647  and  _648
REMARK  248  A    between atoms: _647  and  _650
REMARK  249  A    between atoms: _650  and  _651
REMARK  250  A    between atoms: _657  and  _659
REMARK  251  A    between atoms: _659  and  _660
REMARK  252  A    between atoms: _659  and  _662
REMARK  253  A    between atoms: _662  and  _663
REMARK  254  A    between atoms: _668  and  _670
REMARK  255  A    between atoms: _670  and  _671
REMARK  256  A    between atoms: _670  and  _673
REMARK  257  A    between atoms: _673  and  _674
REMARK  258  A    between atoms: _679  and  _681
REMARK  259  A    between atoms: _681  and  _682
REMARK  260  A    between atoms: _681  and  _684
REMARK  261  A    between atoms: _687  and  _689
REMARK  262  A    between atoms: _689  and  _690
REMARK  263  A    between atoms: _689  and  _692
REMARK  264  A    between atoms: _692  and  _693
REMARK  265  A    between atoms: _697  and  _698
REMARK  266  A    between atoms: _703  and  _705
REMARK  267  A    between atoms: _705  and  _706
REMARK  268  A    between atoms: _705  and  _708
REMARK  269  A    between atoms: _708  and  _709
REMARK  270  A    between atoms: _714  and  _715
REMARK  271  A    between atoms: _717  and  _719
REMARK  272  A    between atoms: _719  and  _720
REMARK  273  A    between atoms: _719  and  _722
REMARK  274  A    between atoms: _722  and  _723
REMARK  275  A    between atoms: _723  and  _724
REMARK  276  A    between atoms: _724  and  _725
REMARK  277  A    between atoms: _734  and  _736
REMARK  278  A    between atoms: _736  and  _737
REMARK  279  A    between atoms: _736  and  _739
REMARK  280  A    between atoms: _739  and  _740
REMARK  281  A    between atoms: _745  and  _746
REMARK  282  A    between atoms: _748  and  _750
REMARK  283  A    between atoms: _750  and  _751
REMARK  284  A    between atoms: _750  and  _753
REMARK  285  A    between atoms: _753  and  _754
REMARK  286  A    between atoms: _760  and  _762
REMARK  287  A    between atoms: _762  and  _763
REMARK  288  A    between atoms: _762  and  _765
REMARK  289  A    between atoms: _765  and  _766
REMARK  290  A    between atoms: _768  and  _770
REMARK  291  A    between atoms: _770  and  _771
REMARK  292  A    between atoms: _770  and  _773
REMARK  293  A    between atoms: _773  and  _774
REMARK  294  A    between atoms: _780  and  _782
REMARK  295  A    between atoms: _782  and  _783
REMARK  296  A    between atoms: _782  and  _785
REMARK  297  A    between atoms: _785  and  _786
REMARK  298  A    between atoms: _786  and  _787
REMARK                            x       y       z     vdW  Elec       q    Type
REMARK                         _______ _______ _______ _____ _____    ______ ____
ROOT
ATOM      1  O   HOH     1       1.706  -8.168 -26.192  0.00  0.00    +0.000 OA
ENDROOT
TORSDOF 0
REMARK  Name = ../refined-set-2016/4ca6/4ca6_pocket.pdb
REMARK  298 active torsions:
REMARK  status: ('A' for Active; 'I' for Inactive)
REMARK    1  A    between atoms: _1  and  _3
REMARK    2  A    between atoms: _3  and  _4
REMARK    3  A    between atoms: _3  and  _6
REMARK    4  A    between atoms: _6  and  _7
REMARK    5  A    between atoms: _10  and  _12
REMARK    6  A    between atoms: _12  and  _13
REMARK    7  A    between atoms: _12  and  _15
REMARK    8  A    between atoms: _15  and  _16
REMARK    9  A    between atoms: _18  and  _20
REMARK   10  A    between atoms: _20  and  _21
REMARK   11  A    between atoms: _20  and  _23
REMARK   12  A    between atoms: _23  and  _24
REMARK   13  A    between atoms: _29  and  _30
REMARK   14  A    between atoms: _32  and  _34
REMARK   15  A    between atoms: _34  and  _35
REMARK   16  A    between atoms: _34  and  _37
REMARK   17  A    between atoms: _37  and  _38
REMARK   18  A    between atoms: _48  and  _50
REMARK   19  A    between atoms: _50  and  _51
REMARK   20  A    between atoms: _50  and  _53
REMARK   21  A    between atoms: _53  and  _54
REMARK   22  A    between atoms: _57  and  _59
REMARK   23  A    between atoms: _59  and  _60
REMARK   24  A    between atoms: _59  and  _62
REMARK   25  A    between atoms: _62  and  _63
REMARK   26  A    between atoms: _73  and  _75
REMARK   27  A    between atoms: _75  and  _76
REMARK   28  A    between atoms: _75  and  _78
REMARK   29  A    between atoms: _78  and  _79
REMARK   30  A    between atoms: _79  and  _80
REMARK   31  A    between atoms: _85  and  _87
REMARK   32  A    between atoms: _87  and  _88
REMARK   33  A    between atoms: _87  and  _90
REMARK   34  A    between atoms: _90  and  _91
REMARK   35  A    between atoms: _93  and  _95
REMARK   36  A    between atoms: _95  and  _96
REMARK   37  A    between atoms: _95  and  _98
REMARK   38  A    between atoms: _98  and  _99
REMARK   39  A    between atoms: _99  and  _100
REMARK   40  A    between atoms: _103  and  _105
REMARK   41  A    between atoms: _105  and  _106
REMARK   42  A    between atoms: _105  and  _108
REMARK   43  A    between atoms: _111  and  _113
REMARK   44  A    between atoms: _113  and  _114
REMARK   45  A    between atoms: _113  and  _116
REMARK   46  A    between atoms: _118  and  _120
REMARK   47  A    between atoms: _120  and  _121
REMARK   48  A    between atoms: _120  and  _123
REMARK   49  A    between atoms: _123  and  _124
REMARK   50  A    between atoms: _129  and  _131
REMARK   51  A    between atoms: _131  and  _132
REMARK   52  A    between atoms: _135  and  _137
REMARK   53  A    between atoms: _137  and  _138
REMARK   54  A    between atoms: _137  and  _140
REMARK   55  A    between atoms: _140  and  _141
REMARK   56  A    between atoms: _143  and  _145
REMARK   57  A    between atoms: _145  and  _146
REMARK   58  A    between atoms: _149  and  _151
REMARK   59  A    between atoms: _151  and  _152
REMARK   60  A    between atoms: _151  and  _154
REMARK   61  A    between atoms: _154  and  _155
REMARK   62  A    between atoms: _165  and  _167
REMARK   63  A    between atoms: _167  and  _168
REMARK   64  A    between atoms: _167  and  _170
REMARK   65  A    between atoms: _170  and  _171
REMARK   66  A    between atoms: _174  and  _176
REMARK   67  A    between atoms: _176  and  _177
REMARK   68  A    between atoms: _176  and  _179
REMARK   69  A    between atoms: _179  and  _180
REMARK   70  A    between atoms: _185  and  _186
REMARK   71  A    between atoms: _188  and  _190
REMARK   72  A    between atoms: _190  and  _191
REMARK   73  A    between atoms: _190  and  _193
REMARK   74  A    between atoms: _193  and  _194
REMARK   75  A    between atoms: _194  and  _195
REMARK   76  A    between atoms: _195  and  _196
REMARK   77  A    between atoms: _205  and  _207
REMARK   78  A    between atoms: _207  and  _208
REMARK   79  A    between atoms: _207  and  _210
REMARK   80  A    between atoms: _210  and  _211
REMARK   81  A    between atoms: _214  and  _216
REMARK   82  A    between atoms: _216  and  _217
REMARK   83  A    between atoms: _216  and  _219
REMARK   84  A    between atoms: _219  and  _220
REMARK   85  A    between atoms: _220  and  _221
REMARK   86  A    between atoms: _221  and  _222
REMARK   87  A    between atoms: _222  and  _223
REMARK   88  A    between atoms: _227  and  _229
REMARK   89  A    between atoms: _229  and  _230
REMARK   90  A    between atoms: _229  and  _232
REMARK   91  A    between atoms: _232  and  _233
REMARK   92  A    between atoms: _233  and  _234
REMARK   93  A    between atoms: _239  and  _241
REMARK   94  A    between atoms: _241  and  _242
REMARK   95  A    between atoms: _241  and  _244
REMARK   96  A    between atoms: _244  and  _245
REMARK   97  A    between atoms: _245  and  _246
REMARK   98  A    between atoms: _246  and  _247
REMARK   99  A    between atoms: _256  and  _258
REMARK  100  A    between atoms: _258  and  _259
REMARK  101  A    between atoms: _258  and  _261
REMARK  102  A    between atoms: _261  and  _262
REMARK  103  A    between atoms: _262  and  _263
REMARK  104  A    between atoms: _265  and  _267
REMARK  105  A    between atoms: _267  and  _268
REMARK  106  A    between atoms: _267  and  _270
REMARK  107  A    between atoms: _270  and  _271
REMARK  108  A    between atoms: _274  and  _276
REMARK  109  A    between atoms: _276  and  _277
REMARK  110  A    between atoms: _276  and  _279
REMARK  111  A    between atoms: _279  and  _280
REMARK  112  A    between atoms: _280  and  _281
REMARK  113  A    between atoms: _286  and  _288
REMARK  114  A    between atoms: _288  and  _289
REMARK  115  A    between atoms: _288  and  _291
REMARK  116  A    between atoms: _291  and  _292
REMARK  117  A    between atoms: _295  and  _297
REMARK  118  A    between atoms: _297  and  _298
REMARK  119  A    between atoms: _297  and  _300
REMARK  120  A    between atoms: _300  and  _301
REMARK  121  A    between atoms: _303  and  _305
REMARK  122  A    between atoms: _305  and  _306
REMARK  123  A    between atoms: _305  and  _308
REMARK  124  A    between atoms: _308  and  _309
REMARK  125  A    between atoms: _312  and  _314
REMARK  126  A    between atoms: _314  and  _315
REMARK  127  A    between atoms: _314  and  _317
REMARK  128  A    between atoms: _320  and  _322
REMARK  129  A    between atoms: _322  and  _323
REMARK  130  A    between atoms: _322  and  _325
REMARK  131  A    between atoms: _325  and  _326
REMARK  132  A    between atoms: _331  and  _333
REMARK  133  A    between atoms: _344  and  _347
REMARK  134  A    between atoms: _347  and  _348
REMARK  135  A    between atoms: _348  and  _349
REMARK  136  A    between atoms: _354  and  _357
REMARK  137  A    between atoms: _357  and  _358
REMARK  138  A    between atoms: _358  and  _359
REMARK  139  A    between atoms: _368  and  _369
REMARK  140  A    between atoms: _377  and  _379
REMARK  141  A    between atoms: _379  and  _380
REMARK  142  A    between atoms: _379  and  _382
REMARK  143  A    between atoms: _382  and  _383
REMARK  144  A    between atoms: _386  and  _388
REMARK  145  A    between atoms: _388  and  _389
REMARK  146  A    between atoms: _388  and  _391
REMARK  147  A    between atoms: _391  and  _392
REMARK  148  A    between atoms: _397  and  _398
REMARK  149  A    between atoms: _400  and  _402
REMARK  150  A    between atoms: _402  and  _403
REMARK  151  A    between atoms: _402  and  _405
REMARK  152  A    between atoms: _405  and  _406
REMARK  153  A    between atoms: _411  and  _412
REMARK  154  A    between atoms: _414  and  _416
REMARK  155  A    between atoms: _416  and  _417
REMARK  156  A    between atoms: _416  and  _419
REMARK  157  A    between atoms: _419  and  _420
REMARK  158  A    between atoms: _425  and  _426
REMARK  159  A    between atoms: _428  and  _430
REMARK  160  A    between atoms: _430  and  _431
REMARK  161  A    between atoms: _430  and  _433
REMARK  162  A    between atoms: _433  and  _434
REMARK  163  A    between atoms: _434  and  _435
REMARK  164  A    between atoms: _435  and  _436
REMARK  165  A    between atoms: _445  and  _447
REMARK  166  A    between atoms: _447  and  _448
REMARK  167  A    between atoms: _447  and  _450
REMARK  168  A    between atoms: _450  and  _451
REMARK  169  A    between atoms: _451  and  _452
REMARK  170  A    between atoms: _452  and  _453
REMARK  171  A    between atoms: _462  and  _464
REMARK  172  A    between atoms: _464  and  _465
REMARK  173  A    between atoms: _467  and  _469
REMARK  174  A    between atoms: _469  and  _470
REMARK  175  A    between atoms: _473  and  _475
REMARK  176  A    between atoms: _475  and  _476
REMARK  177  A    between atoms: _475  and  _478
REMARK  178  A    between atoms: _478  and  _479
REMARK  179  A    between atoms: _485  and  _486
REMARK  180  A    between atoms: _491  and  _493
REMARK  181  A    between atoms: _493  and  _494
REMARK  182  A    between atoms: _496  and  _498
REMARK  183  A    between atoms: _498  and  _499
REMARK  184  A    between atoms: _498  and  _501
REMARK  185  A    between atoms: _501  and  _502
REMARK  186  A    between atoms: _508  and  _510
REMARK  187  A    between atoms: _510  and  _511
REMARK  188  A    between atoms: _510  and  _513
REMARK  189  A    between atoms: _513  and  _514
REMARK  190  A    between atoms: _519  and  _521
REMARK  191  A    between atoms: _521  and  _522
REMARK  192  A    between atoms: _521  and  _524
REMARK  193  A    between atoms: _524  and  _525
REMARK  194  A    between atoms: _525  and  _526
REMARK  195  A    between atoms: _526  and  _527
REMARK  196  A    between atoms: _527  and  ZN_792
REMARK  197  A    between atoms: _529  and  _531
REMARK  198  A    between atoms: _531  and  _532
REMARK  199  A    between atoms: _535  and  _537
REMARK  200  A    between atoms: _537  and  _538
REMARK  201  A    between atoms: _540  and  _542
REMARK  202  A    between atoms: _542  and  _543
REMARK  203  A    between atoms: _542  and  _545
REMARK  204  A    between atoms: _545  and  _546
REMARK  205  A    between atoms: _549  and  _551
REMARK  206  A    between atoms: _551  and  _552
REMARK  207  A    between atoms: _551  and  _554
REMARK  208  A    between atoms: _557  and  _559
REMARK  209  A    between atoms: _559  and  _560
REMARK  210  A    between atoms: _563  and  _565
REMARK  211  A    between atoms: _565  and  _566
REMARK  212  A    between atoms: _565  and  _568
REMARK  213  A    between atoms: _568  and  _569
REMARK  214  A    between atoms: _572  and  _574
REMARK  215  A    between atoms: _574  and  _575
REMARK  216  A    between atoms: _574  and  _577
REMARK  217  A    between atoms: _577  and  _578
REMARK  218  A    between atoms: _578  and  _579
REMARK  219  A    between atoms: _582  and  _584
REMARK  220  A    between atoms: _584  and  _585
REMARK  221  A    between atoms: _584  and  _587
REMARK  222  A    between atoms: _587  and  _588
REMARK  223  A    between atoms: _588  and  _589
REMARK  224  A    between atoms: _589  and  _590
REMARK  225  A    between atoms: _590  and  _591
REMARK  226  A    between atoms: _595  and  _597
REMARK  227  A    between atoms: _597  and  _598
REMARK  228  A    between atoms: _597  and  _600
REMARK  229  A    between atoms: _600  and  _601
REMARK  230  A    between atoms: _607  and  _609
REMARK  231  A    between atoms: _609  and  _610
REMARK  232  A    between atoms: _609  and  _612
REMARK  233  A    between atoms: _612  and  _613
REMARK  234  A    between atoms: _619  and  _621
REMARK  235  A    between atoms: _621  and  _622
REMARK  236  A    between atoms: _624  and  _626
REMARK  237  A    between atoms: _626  and  _627
REMARK  238  A    between atoms: _626  and  _629
REMARK  239  A    between atoms: _632  and  _634
REMARK  240  A    between atoms: _634  and  _635
REMARK  241  A    between atoms: _634  and  _637
REMARK  242  A    between atoms: _637  and  _638
REMARK  243  A    between atoms: _638  and  _639
REMARK  244  A    between atoms: _639  and  _640
REMARK  245  A    between atoms: _640  and  _641
REMARK  246  A    between atoms: _645  and  _647
REMARK  247  A    between atoms: _647  and  _648
REMARK  248  A    between atoms: _647  and  _650
REMARK  249  A    between atoms: _650  and  _651
REMARK  250  A    between atoms: _657  and  _659
REMARK  251  A    between atoms: _659  and  _660
REMARK  252  A    between atoms: _659  and  _662
REMARK  253  A    between atoms: _662  and  _663
REMARK  254  A    between atoms: _668  and  _670
REMARK  255  A    between atoms: _670  and  _671
REMARK  256  A    between atoms: _670  and  _673
REMARK  257  A    between atoms: _673  and  _674
REMARK  258  A    between atoms: _679  and  _681
REMARK  259  A    between atoms: _681  and  _682
REMARK  260  A    between atoms: _681  and  _684
REMARK  261  A    between atoms: _687  and  _689
REMARK  262  A    between atoms: _689  and  _690
REMARK  263  A    between atoms: _689  and  _692
REMARK  264  A    between atoms: _692  and  _693
REMARK  265  A    between atoms: _697  and  _698
REMARK  266  A    between atoms: _703  and  _705
REMARK  267  A    between atoms: _705  and  _706
REMARK  268  A    between atoms: _705  and  _708
REMARK  269  A    between atoms: _708  and  _709
REMARK  270  A    between atoms: _714  and  _715
REMARK  271  A    between atoms: _717  and  _719
REMARK  272  A    between atoms: _719  and  _720
REMARK  273  A    between atoms: _719  and  _722
REMARK  274  A    between atoms: _722  and  _723
REMARK  275  A    between atoms: _723  and  _724
REMARK  276  A    between atoms: _724  and  _725
REMARK  277  A    between atoms: _734  and  _736
REMARK  278  A    between atoms: _736  and  _737
REMARK  279  A    between atoms: _736  and  _739
REMARK  280  A    between atoms: _739  and  _740
REMARK  281  A    between atoms: _745  and  _746
REMARK  282  A    between atoms: _748  and  _750
REMARK  283  A    between atoms: _750  and  _751
REMARK  284  A    between atoms: _750  and  _753
REMARK  285  A    between atoms: _753  and  _754
REMARK  286  A    between atoms: _760  and  _762
REMARK  287  A    between atoms: _762  and  _763
REMARK  288  A    between atoms: _762  and  _765
REMARK  289  A    between atoms: _765  and  _766
REMARK  290  A    between atoms: _768  and  _770
REMARK  291  A    between atoms: _770  and  _771
REMARK  292  A    between atoms: _770  and  _773
REMARK  293  A    between atoms: _773  and  _774
REMARK  294  A    between atoms: _780  and  _782
REMARK  295  A    between atoms: _782  and  _783
REMARK  296  A    between atoms: _782  and  _785
REMARK  297  A    between atoms: _785  and  _786
REMARK  298  A    between atoms: _786  and  _787
REMARK                            x       y       z     vdW  Elec       q    Type
REMARK                         _______ _______ _______ _____ _____    ______ ____
ROOT
ATOM      1  O   HOH     1       2.466  -7.894 -23.087  0.00  0.00    +0.000 OA
ENDROOT
TORSDOF 0
REMARK  Name = ../refined-set-2016/4ca6/4ca6_pocket.pdb
REMARK  298 active torsions:
REMARK  status: ('A' for Active; 'I' for Inactive)
REMARK    1  A    between atoms: _1  and  _3
REMARK    2  A    between atoms: _3  and  _4
REMARK    3  A    between atoms: _3  and  _6
REMARK    4  A    between atoms: _6  and  _7
REMARK    5  A    between atoms: _10  and  _12
REMARK    6  A    between atoms: _12  and  _13
REMARK    7  A    between atoms: _12  and  _15
REMARK    8  A    between atoms: _15  and  _16
REMARK    9  A    between atoms: _18  and  _20
REMARK   10  A    between atoms: _20  and  _21
REMARK   11  A    between atoms: _20  and  _23
REMARK   12  A    between atoms: _23  and  _24
REMARK   13  A    between atoms: _29  and  _30
REMARK   14  A    between atoms: _32  and  _34
REMARK   15  A    between atoms: _34  and  _35
REMARK   16  A    between atoms: _34  and  _37
REMARK   17  A    between atoms: _37  and  _38
REMARK   18  A    between atoms: _48  and  _50
REMARK   19  A    between atoms: _50  and  _51
REMARK   20  A    between atoms: _50  and  _53
REMARK   21  A    between atoms: _53  and  _54
REMARK   22  A    between atoms: _57  and  _59
REMARK   23  A    between atoms: _59  and  _60
REMARK   24  A    between atoms: _59  and  _62
REMARK   25  A    between atoms: _62  and  _63
REMARK   26  A    between atoms: _73  and  _75
REMARK   27  A    between atoms: _75  and  _76
REMARK   28  A    between atoms: _75  and  _78
REMARK   29  A    between atoms: _78  and  _79
REMARK   30  A    between atoms: _79  and  _80
REMARK   31  A    between atoms: _85  and  _87
REMARK   32  A    between atoms: _87  and  _88
REMARK   33  A    between atoms: _87  and  _90
REMARK   34  A    between atoms: _90  and  _91
REMARK   35  A    between atoms: _93  and  _95
REMARK   36  A    between atoms: _95  and  _96
REMARK   37  A    between atoms: _95  and  _98
REMARK   38  A    between atoms: _98  and  _99
REMARK   39  A    between atoms: _99  and  _100
REMARK   40  A    between atoms: _103  and  _105
REMARK   41  A    between atoms: _105  and  _106
REMARK   42  A    between atoms: _105  and  _108
REMARK   43  A    between atoms: _111  and  _113
REMARK   44  A    between atoms: _113  and  _114
REMARK   45  A    between atoms: _113  and  _116
REMARK   46  A    between atoms: _118  and  _120
REMARK   47  A    between atoms: _120  and  _121
REMARK   48  A    between atoms: _120  and  _123
REMARK   49  A    between atoms: _123  and  _124
REMARK   50  A    between atoms: _129  and  _131
REMARK   51  A    between atoms: _131  and  _132
REMARK   52  A    between atoms: _135  and  _137
REMARK   53  A    between atoms: _137  and  _138
REMARK   54  A    between atoms: _137  and  _140
REMARK   55  A    between atoms: _140  and  _141
REMARK   56  A    between atoms: _143  and  _145
REMARK   57  A    between atoms: _145  and  _146
REMARK   58  A    between atoms: _149  and  _151
REMARK   59  A    between atoms: _151  and  _152
REMARK   60  A    between atoms: _151  and  _154
REMARK   61  A    between atoms: _154  and  _155
REMARK   62  A    between atoms: _165  and  _167
REMARK   63  A    between atoms: _167  and  _168
REMARK   64  A    between atoms: _167  and  _170
REMARK   65  A    between atoms: _170  and  _171
REMARK   66  A    between atoms: _174  and  _176
REMARK   67  A    between atoms: _176  and  _177
REMARK   68  A    between atoms: _176  and  _179
REMARK   69  A    between atoms: _179  and  _180
REMARK   70  A    between atoms: _185  and  _186
REMARK   71  A    between atoms: _188  and  _190
REMARK   72  A    between atoms: _190  and  _191
REMARK   73  A    between atoms: _190  and  _193
REMARK   74  A    between atoms: _193  and  _194
REMARK   75  A    between atoms: _194  and  _195
REMARK   76  A    between atoms: _195  and  _196
REMARK   77  A    between atoms: _205  and  _207
REMARK   78  A    between atoms: _207  and  _208
REMARK   79  A    between atoms: _207  and  _210
REMARK   80  A    between atoms: _210  and  _211
REMARK   81  A    between atoms: _214  and  _216
REMARK   82  A    between atoms: _216  and  _217
REMARK   83  A    between atoms: _216  and  _219
REMARK   84  A    between atoms: _219  and  _220
REMARK   85  A    between atoms: _220  and  _221
REMARK   86  A    between atoms: _221  and  _222
REMARK   87  A    between atoms: _222  and  _223
REMARK   88  A    between atoms: _227  and  _229
REMARK   89  A    between atoms: _229  and  _230
REMARK   90  A    between atoms: _229  and  _232
REMARK   91  A    between atoms: _232  and  _233
REMARK   92  A    between atoms: _233  and  _234
REMARK   93  A    between atoms: _239  and  _241
REMARK   94  A    between atoms: _241  and  _242
REMARK   95  A    between atoms: _241  and  _244
REMARK   96  A    between atoms: _244  and  _245
REMARK   97  A    between atoms: _245  and  _246
REMARK   98  A    between atoms: _246  and  _247
REMARK   99  A    between atoms: _256  and  _258
REMARK  100  A    between atoms: _258  and  _259
REMARK  101  A    between atoms: _258  and  _261
REMARK  102  A    between atoms: _261  and  _262
REMARK  103  A    between atoms: _262  and  _263
REMARK  104  A    between atoms: _265  and  _267
REMARK  105  A    between atoms: _267  and  _268
REMARK  106  A    between atoms: _267  and  _270
REMARK  107  A    between atoms: _270  and  _271
REMARK  108  A    between atoms: _274  and  _276
REMARK  109  A    between atoms: _276  and  _277
REMARK  110  A    between atoms: _276  and  _279
REMARK  111  A    between atoms: _279  and  _280
REMARK  112  A    between atoms: _280  and  _281
REMARK  113  A    between atoms: _286  and  _288
REMARK  114  A    between atoms: _288  and  _289
REMARK  115  A    between atoms: _288  and  _291
REMARK  116  A    between atoms: _291  and  _292
REMARK  117  A    between atoms: _295  and  _297
REMARK  118  A    between atoms: _297  and  _298
REMARK  119  A    between atoms: _297  and  _300
REMARK  120  A    between atoms: _300  and  _301
REMARK  121  A    between atoms: _303  and  _305
REMARK  122  A    between atoms: _305  and  _306
REMARK  123  A    between atoms: _305  and  _308
REMARK  124  A    between atoms: _308  and  _309
REMARK  125  A    between atoms: _312  and  _314
REMARK  126  A    between atoms: _314  and  _315
REMARK  127  A    between atoms: _314  and  _317
REMARK  128  A    between atoms: _320  and  _322
REMARK  129  A    between atoms: _322  and  _323
REMARK  130  A    between atoms: _322  and  _325
REMARK  131  A    between atoms: _325  and  _326
REMARK  132  A    between atoms: _331  and  _333
REMARK  133  A    between atoms: _344  and  _347
REMARK  134  A    between atoms: _347  and  _348
REMARK  135  A    between atoms: _348  and  _349
REMARK  136  A    between atoms: _354  and  _357
REMARK  137  A    between atoms: _357  and  _358
REMARK  138  A    between atoms: _358  and  _359
REMARK  139  A    between atoms: _368  and  _369
REMARK  140  A    between atoms: _377  and  _379
REMARK  141  A    between atoms: _379  and  _380
REMARK  142  A    between atoms: _379  and  _382
REMARK  143  A    between atoms: _382  and  _383
REMARK  144  A    between atoms: _386  and  _388
REMARK  145  A    between atoms: _388  and  _389
REMARK  146  A    between atoms: _388  and  _391
REMARK  147  A    between atoms: _391  and  _392
REMARK  148  A    between atoms: _397  and  _398
REMARK  149  A    between atoms: _400  and  _402
REMARK  150  A    between atoms: _402  and  _403
REMARK  151  A    between atoms: _402  and  _405
REMARK  152  A    between atoms: _405  and  _406
REMARK  153  A    between atoms: _411  and  _412
REMARK  154  A    between atoms: _414  and  _416
REMARK  155  A    between atoms: _416  and  _417
REMARK  156  A    between atoms: _416  and  _419
REMARK  157  A    between atoms: _419  and  _420
REMARK  158  A    between atoms: _425  and  _426
REMARK  159  A    between atoms: _428  and  _430
REMARK  160  A    between atoms: _430  and  _431
REMARK  161  A    between atoms: _430  and  _433
REMARK  162  A    between atoms: _433  and  _434
REMARK  163  A    between atoms: _434  and  _435
REMARK  164  A    between atoms: _435  and  _436
REMARK  165  A    between atoms: _445  and  _447
REMARK  166  A    between atoms: _447  and  _448
REMARK  167  A    between atoms: _447  and  _450
REMARK  168  A    between atoms: _450  and  _451
REMARK  169  A    between atoms: _451  and  _452
REMARK  170  A    between atoms: _452  and  _453
REMARK  171  A    between atoms: _462  and  _464
REMARK  172  A    between atoms: _464  and  _465
REMARK  173  A    between atoms: _467  and  _469
REMARK  174  A    between atoms: _469  and  _470
REMARK  175  A    between atoms: _473  and  _475
REMARK  176  A    between atoms: _475  and  _476
REMARK  177  A    between atoms: _475  and  _478
REMARK  178  A    between atoms: _478  and  _479
REMARK  179  A    between atoms: _485  and  _486
REMARK  180  A    between atoms: _491  and  _493
REMARK  181  A    between atoms: _493  and  _494
REMARK  182  A    between atoms: _496  and  _498
REMARK  183  A    between atoms: _498  and  _499
REMARK  184  A    between atoms: _498  and  _501
REMARK  185  A    between atoms: _501  and  _502
REMARK  186  A    between atoms: _508  and  _510
REMARK  187  A    between atoms: _510  and  _511
REMARK  188  A    between atoms: _510  and  _513
REMARK  189  A    between atoms: _513  and  _514
REMARK  190  A    between atoms: _519  and  _521
REMARK  191  A    between atoms: _521  and  _522
REMARK  192  A    between atoms: _521  and  _524
REMARK  193  A    between atoms: _524  and  _525
REMARK  194  A    between atoms: _525  and  _526
REMARK  195  A    between atoms: _526  and  _527
REMARK  196  A    between atoms: _527  and  ZN_792
REMARK  197  A    between atoms: _529  and  _531
REMARK  198  A    between atoms: _531  and  _532
REMARK  199  A    between atoms: _535  and  _537
REMARK  200  A    between atoms: _537  and  _538
REMARK  201  A    between atoms: _540  and  _542
REMARK  202  A    between atoms: _542  and  _543
REMARK  203  A    between atoms: _542  and  _545
REMARK  204  A    between atoms: _545  and  _546
REMARK  205  A    between atoms: _549  and  _551
REMARK  206  A    between atoms: _551  and  _552
REMARK  207  A    between atoms: _551  and  _554
REMARK  208  A    between atoms: _557  and  _559
REMARK  209  A    between atoms: _559  and  _560
REMARK  210  A    between atoms: _563  and  _565
REMARK  211  A    between atoms: _565  and  _566
REMARK  212  A    between atoms: _565  and  _568
REMARK  213  A    between atoms: _568  and  _569
REMARK  214  A    between atoms: _572  and  _574
REMARK  215  A    between atoms: _574  and  _575
REMARK  216  A    between atoms: _574  and  _577
REMARK  217  A    between atoms: _577  and  _578
REMARK  218  A    between atoms: _578  and  _579
REMARK  219  A    between atoms: _582  and  _584
REMARK  220  A    between atoms: _584  and  _585
REMARK  221  A    between atoms: _584  and  _587
REMARK  222  A    between atoms: _587  and  _588
REMARK  223  A    between atoms: _588  and  _589
REMARK  224  A    between atoms: _589  and  _590
REMARK  225  A    between atoms: _590  and  _591
REMARK  226  A    between atoms: _595  and  _597
REMARK  227  A    between atoms: _597  and  _598
REMARK  228  A    between atoms: _597  and  _600
REMARK  229  A    between atoms: _600  and  _601
REMARK  230  A    between atoms: _607  and  _609
REMARK  231  A    between atoms: _609  and  _610
REMARK  232  A    between atoms: _609  and  _612
REMARK  233  A    between atoms: _612  and  _613
REMARK  234  A    between atoms: _619  and  _621
REMARK  235  A    between atoms: _621  and  _622
REMARK  236  A    between atoms: _624  and  _626
REMARK  237  A    between atoms: _626  and  _627
REMARK  238  A    between atoms: _626  and  _629
REMARK  239  A    between atoms: _632  and  _634
REMARK  240  A    between atoms: _634  and  _635
REMARK  241  A    between atoms: _634  and  _637
REMARK  242  A    between atoms: _637  and  _638
REMARK  243  A    between atoms: _638  and  _639
REMARK  244  A    between atoms: _639  and  _640
REMARK  245  A    between atoms: _640  and  _641
REMARK  246  A    between atoms: _645  and  _647
REMARK  247  A    between atoms: _647  and  _648
REMARK  248  A    between atoms: _647  and  _650
REMARK  249  A    between atoms: _650  and  _651
REMARK  250  A    between atoms: _657  and  _659
REMARK  251  A    between atoms: _659  and  _660
REMARK  252  A    between atoms: _659  and  _662
REMARK  253  A    between atoms: _662  and  _663
REMARK  254  A    between atoms: _668  and  _670
REMARK  255  A    between atoms: _670  and  _671
REMARK  256  A    between atoms: _670  and  _673
REMARK  257  A    between atoms: _673  and  _674
REMARK  258  A    between atoms: _679  and  _681
REMARK  259  A    between atoms: _681  and  _682
REMARK  260  A    between atoms: _681  and  _684
REMARK  261  A    between atoms: _687  and  _689
REMARK  262  A    between atoms: _689  and  _690
REMARK  263  A    between atoms: _689  and  _692
REMARK  264  A    between atoms: _692  and  _693
REMARK  265  A    between atoms: _697  and  _698
REMARK  266  A    between atoms: _703  and  _705
REMARK  267  A    between atoms: _705  and  _706
REMARK  268  A    between atoms: _705  and  _708
REMARK  269  A    between atoms: _708  and  _709
REMARK  270  A    between atoms: _714  and  _715
REMARK  271  A    between atoms: _717  and  _719
REMARK  272  A    between atoms: _719  and  _720
REMARK  273  A    between atoms: _719  and  _722
REMARK  274  A    between atoms: _722  and  _723
REMARK  275  A    between atoms: _723  and  _724
REMARK  276  A    between atoms: _724  and  _725
REMARK  277  A    between atoms: _734  and  _736
REMARK  278  A    between atoms: _736  and  _737
REMARK  279  A    between atoms: _736  and  _739
REMARK  280  A    between atoms: _739  and  _740
REMARK  281  A    between atoms: _745  and  _746
REMARK  282  A    between atoms: _748  and  _750
REMARK  283  A    between atoms: _750  and  _751
REMARK  284  A    between atoms: _750  and  _753
REMARK  285  A    between atoms: _753  and  _754
REMARK  286  A    between atoms: _760  and  _762
REMARK  287  A    between atoms: _762  and  _763
REMARK  288  A    between atoms: _762  and  _765
REMARK  289  A    between atoms: _765  and  _766
REMARK  290  A    between atoms: _768  and  _770
REMARK  291  A    between atoms: _770  and  _771
REMARK  292  A    between atoms: _770  and  _773
REMARK  293  A    between atoms: _773  and  _774
REMARK  294  A    between atoms: _780  and  _782
REMARK  295  A    between atoms: _782  and  _783
REMARK  296  A    between atoms: _782  and  _785
REMARK  297  A    between atoms: _785  and  _786
REMARK  298  A    between atoms: _786  and  _787
REMARK                            x       y       z     vdW  Elec       q    Type
REMARK                         _______ _______ _______ _____ _____    ______ ____
ROOT
ATOM      1  O   HOH     1       6.297 -12.675 -31.427  0.00  0.00    +0.000 OA
ENDROOT
TORSDOF 0
REMARK  Name = ../refined-set-2016/4ca6/4ca6_pocket.pdb
REMARK  298 active torsions:
REMARK  status: ('A' for Active; 'I' for Inactive)
REMARK    1  A    between atoms: _1  and  _3
REMARK    2  A    between atoms: _3  and  _4
REMARK    3  A    between atoms: _3  and  _6
REMARK    4  A    between atoms: _6  and  _7
REMARK    5  A    between atoms: _10  and  _12
REMARK    6  A    between atoms: _12  and  _13
REMARK    7  A    between atoms: _12  and  _15
REMARK    8  A    between atoms: _15  and  _16
REMARK    9  A    between atoms: _18  and  _20
REMARK   10  A    between atoms: _20  and  _21
REMARK   11  A    between atoms: _20  and  _23
REMARK   12  A    between atoms: _23  and  _24
REMARK   13  A    between atoms: _29  and  _30
REMARK   14  A    between atoms: _32  and  _34
REMARK   15  A    between atoms: _34  and  _35
REMARK   16  A    between atoms: _34  and  _37
REMARK   17  A    between atoms: _37  and  _38
REMARK   18  A    between atoms: _48  and  _50
REMARK   19  A    between atoms: _50  and  _51
REMARK   20  A    between atoms: _50  and  _53
REMARK   21  A    between atoms: _53  and  _54
REMARK   22  A    between atoms: _57  and  _59
REMARK   23  A    between atoms: _59  and  _60
REMARK   24  A    between atoms: _59  and  _62
REMARK   25  A    between atoms: _62  and  _63
REMARK   26  A    between atoms: _73  and  _75
REMARK   27  A    between atoms: _75  and  _76
REMARK   28  A    between atoms: _75  and  _78
REMARK   29  A    between atoms: _78  and  _79
REMARK   30  A    between atoms: _79  and  _80
REMARK   31  A    between atoms: _85  and  _87
REMARK   32  A    between atoms: _87  and  _88
REMARK   33  A    between atoms: _87  and  _90
REMARK   34  A    between atoms: _90  and  _91
REMARK   35  A    between atoms: _93  and  _95
REMARK   36  A    between atoms: _95  and  _96
REMARK   37  A    between atoms: _95  and  _98
REMARK   38  A    between atoms: _98  and  _99
REMARK   39  A    between atoms: _99  and  _100
REMARK   40  A    between atoms: _103  and  _105
REMARK   41  A    between atoms: _105  and  _106
REMARK   42  A    between atoms: _105  and  _108
REMARK   43  A    between atoms: _111  and  _113
REMARK   44  A    between atoms: _113  and  _114
REMARK   45  A    between atoms: _113  and  _116
REMARK   46  A    between atoms: _118  and  _120
REMARK   47  A    between atoms: _120  and  _121
REMARK   48  A    between atoms: _120  and  _123
REMARK   49  A    between atoms: _123  and  _124
REMARK   50  A    between atoms: _129  and  _131
REMARK   51  A    between atoms: _131  and  _132
REMARK   52  A    between atoms: _135  and  _137
REMARK   53  A    between atoms: _137  and  _138
REMARK   54  A    between atoms: _137  and  _140
REMARK   55  A    between atoms: _140  and  _141
REMARK   56  A    between atoms: _143  and  _145
REMARK   57  A    between atoms: _145  and  _146
REMARK   58  A    between atoms: _149  and  _151
REMARK   59  A    between atoms: _151  and  _152
REMARK   60  A    between atoms: _151  and  _154
REMARK   61  A    between atoms: _154  and  _155
REMARK   62  A    between atoms: _165  and  _167
REMARK   63  A    between atoms: _167  and  _168
REMARK   64  A    between atoms: _167  and  _170
REMARK   65  A    between atoms: _170  and  _171
REMARK   66  A    between atoms: _174  and  _176
REMARK   67  A    between atoms: _176  and  _177
REMARK   68  A    between atoms: _176  and  _179
REMARK   69  A    between atoms: _179  and  _180
REMARK   70  A    between atoms: _185  and  _186
REMARK   71  A    between atoms: _188  and  _190
REMARK   72  A    between atoms: _190  and  _191
REMARK   73  A    between atoms: _190  and  _193
REMARK   74  A    between atoms: _193  and  _194
REMARK   75  A    between atoms: _194  and  _195
REMARK   76  A    between atoms: _195  and  _196
REMARK   77  A    between atoms: _205  and  _207
REMARK   78  A    between atoms: _207  and  _208
REMARK   79  A    between atoms: _207  and  _210
REMARK   80  A    between atoms: _210  and  _211
REMARK   81  A    between atoms: _214  and  _216
REMARK   82  A    between atoms: _216  and  _217
REMARK   83  A    between atoms: _216  and  _219
REMARK   84  A    between atoms: _219  and  _220
REMARK   85  A    between atoms: _220  and  _221
REMARK   86  A    between atoms: _221  and  _222
REMARK   87  A    between atoms: _222  and  _223
REMARK   88  A    between atoms: _227  and  _229
REMARK   89  A    between atoms: _229  and  _230
REMARK   90  A    between atoms: _229  and  _232
REMARK   91  A    between atoms: _232  and  _233
REMARK   92  A    between atoms: _233  and  _234
REMARK   93  A    between atoms: _239  and  _241
REMARK   94  A    between atoms: _241  and  _242
REMARK   95  A    between atoms: _241  and  _244
REMARK   96  A    between atoms: _244  and  _245
REMARK   97  A    between atoms: _245  and  _246
REMARK   98  A    between atoms: _246  and  _247
REMARK   99  A    between atoms: _256  and  _258
REMARK  100  A    between atoms: _258  and  _259
REMARK  101  A    between atoms: _258  and  _261
REMARK  102  A    between atoms: _261  and  _262
REMARK  103  A    between atoms: _262  and  _263
REMARK  104  A    between atoms: _265  and  _267
REMARK  105  A    between atoms: _267  and  _268
REMARK  106  A    between atoms: _267  and  _270
REMARK  107  A    between atoms: _270  and  _271
REMARK  108  A    between atoms: _274  and  _276
REMARK  109  A    between atoms: _276  and  _277
REMARK  110  A    between atoms: _276  and  _279
REMARK  111  A    between atoms: _279  and  _280
REMARK  112  A    between atoms: _280  and  _281
REMARK  113  A    between atoms: _286  and  _288
REMARK  114  A    between atoms: _288  and  _289
REMARK  115  A    between atoms: _288  and  _291
REMARK  116  A    between atoms: _291  and  _292
REMARK  117  A    between atoms: _295  and  _297
REMARK  118  A    between atoms: _297  and  _298
REMARK  119  A    between atoms: _297  and  _300
REMARK  120  A    between atoms: _300  and  _301
REMARK  121  A    between atoms: _303  and  _305
REMARK  122  A    between atoms: _305  and  _306
REMARK  123  A    between atoms: _305  and  _308
REMARK  124  A    between atoms: _308  and  _309
REMARK  125  A    between atoms: _312  and  _314
REMARK  126  A    between atoms: _314  and  _315
REMARK  127  A    between atoms: _314  and  _317
REMARK  128  A    between atoms: _320  and  _322
REMARK  129  A    between atoms: _322  and  _323
REMARK  130  A    between atoms: _322  and  _325
REMARK  131  A    between atoms: _325  and  _326
REMARK  132  A    between atoms: _331  and  _333
REMARK  133  A    between atoms: _344  and  _347
REMARK  134  A    between atoms: _347  and  _348
REMARK  135  A    between atoms: _348  and  _349
REMARK  136  A    between atoms: _354  and  _357
REMARK  137  A    between atoms: _357  and  _358
REMARK  138  A    between atoms: _358  and  _359
REMARK  139  A    between atoms: _368  and  _369
REMARK  140  A    between atoms: _377  and  _379
REMARK  141  A    between atoms: _379  and  _380
REMARK  142  A    between atoms: _379  and  _382
REMARK  143  A    between atoms: _382  and  _383
REMARK  144  A    between atoms: _386  and  _388
REMARK  145  A    between atoms: _388  and  _389
REMARK  146  A    between atoms: _388  and  _391
REMARK  147  A    between atoms: _391  and  _392
REMARK  148  A    between atoms: _397  and  _398
REMARK  149  A    between atoms: _400  and  _402
REMARK  150  A    between atoms: _402  and  _403
REMARK  151  A    between atoms: _402  and  _405
REMARK  152  A    between atoms: _405  and  _406
REMARK  153  A    between atoms: _411  and  _412
REMARK  154  A    between atoms: _414  and  _416
REMARK  155  A    between atoms: _416  and  _417
REMARK  156  A    between atoms: _416  and  _419
REMARK  157  A    between atoms: _419  and  _420
REMARK  158  A    between atoms: _425  and  _426
REMARK  159  A    between atoms: _428  and  _430
REMARK  160  A    between atoms: _430  and  _431
REMARK  161  A    between atoms: _430  and  _433
REMARK  162  A    between atoms: _433  and  _434
REMARK  163  A    between atoms: _434  and  _435
REMARK  164  A    between atoms: _435  and  _436
REMARK  165  A    between atoms: _445  and  _447
REMARK  166  A    between atoms: _447  and  _448
REMARK  167  A    between atoms: _447  and  _450
REMARK  168  A    between atoms: _450  and  _451
REMARK  169  A    between atoms: _451  and  _452
REMARK  170  A    between atoms: _452  and  _453
REMARK  171  A    between atoms: _462  and  _464
REMARK  172  A    between atoms: _464  and  _465
REMARK  173  A    between atoms: _467  and  _469
REMARK  174  A    between atoms: _469  and  _470
REMARK  175  A    between atoms: _473  and  _475
REMARK  176  A    between atoms: _475  and  _476
REMARK  177  A    between atoms: _475  and  _478
REMARK  178  A    between atoms: _478  and  _479
REMARK  179  A    between atoms: _485  and  _486
REMARK  180  A    between atoms: _491  and  _493
REMARK  181  A    between atoms: _493  and  _494
REMARK  182  A    between atoms: _496  and  _498
REMARK  183  A    between atoms: _498  and  _499
REMARK  184  A    between atoms: _498  and  _501
REMARK  185  A    between atoms: _501  and  _502
REMARK  186  A    between atoms: _508  and  _510
REMARK  187  A    between atoms: _510  and  _511
REMARK  188  A    between atoms: _510  and  _513
REMARK  189  A    between atoms: _513  and  _514
REMARK  190  A    between atoms: _519  and  _521
REMARK  191  A    between atoms: _521  and  _522
REMARK  192  A    between atoms: _521  and  _524
REMARK  193  A    between atoms: _524  and  _525
REMARK  194  A    between atoms: _525  and  _526
REMARK  195  A    between atoms: _526  and  _527
REMARK  196  A    between atoms: _527  and  ZN_792
REMARK  197  A    between atoms: _529  and  _531
REMARK  198  A    between atoms: _531  and  _532
REMARK  199  A    between atoms: _535  and  _537
REMARK  200  A    between atoms: _537  and  _538
REMARK  201  A    between atoms: _540  and  _542
REMARK  202  A    between atoms: _542  and  _543
REMARK  203  A    between atoms: _542  and  _545
REMARK  204  A    between atoms: _545  and  _546
REMARK  205  A    between atoms: _549  and  _551
REMARK  206  A    between atoms: _551  and  _552
REMARK  207  A    between atoms: _551  and  _554
REMARK  208  A    between atoms: _557  and  _559
REMARK  209  A    between atoms: _559  and  _560
REMARK  210  A    between atoms: _563  and  _565
REMARK  211  A    between atoms: _565  and  _566
REMARK  212  A    between atoms: _565  and  _568
REMARK  213  A    between atoms: _568  and  _569
REMARK  214  A    between atoms: _572  and  _574
REMARK  215  A    between atoms: _574  and  _575
REMARK  216  A    between atoms: _574  and  _577
REMARK  217  A    between atoms: _577  and  _578
REMARK  218  A    between atoms: _578  and  _579
REMARK  219  A    between atoms: _582  and  _584
REMARK  220  A    between atoms: _584  and  _585
REMARK  221  A    between atoms: _584  and  _587
REMARK  222  A    between atoms: _587  and  _588
REMARK  223  A    between atoms: _588  and  _589
REMARK  224  A    between atoms: _589  and  _590
REMARK  225  A    between atoms: _590  and  _591
REMARK  226  A    between atoms: _595  and  _597
REMARK  227  A    between atoms: _597  and  _598
REMARK  228  A    between atoms: _597  and  _600
REMARK  229  A    between atoms: _600  and  _601
REMARK  230  A    between atoms: _607  and  _609
REMARK  231  A    between atoms: _609  and  _610
REMARK  232  A    between atoms: _609  and  _612
REMARK  233  A    between atoms: _612  and  _613
REMARK  234  A    between atoms: _619  and  _621
REMARK  235  A    between atoms: _621  and  _622
REMARK  236  A    between atoms: _624  and  _626
REMARK  237  A    between atoms: _626  and  _627
REMARK  238  A    between atoms: _626  and  _629
REMARK  239  A    between atoms: _632  and  _634
REMARK  240  A    between atoms: _634  and  _635
REMARK  241  A    between atoms: _634  and  _637
REMARK  242  A    between atoms: _637  and  _638
REMARK  243  A    between atoms: _638  and  _639
REMARK  244  A    between atoms: _639  and  _640
REMARK  245  A    between atoms: _640  and  _641
REMARK  246  A    between atoms: _645  and  _647
REMARK  247  A    between atoms: _647  and  _648
REMARK  248  A    between atoms: _647  and  _650
REMARK  249  A    between atoms: _650  and  _651
REMARK  250  A    between atoms: _657  and  _659
REMARK  251  A    between atoms: _659  and  _660
REMARK  252  A    between atoms: _659  and  _662
REMARK  253  A    between atoms: _662  and  _663
REMARK  254  A    between atoms: _668  and  _670
REMARK  255  A    between atoms: _670  and  _671
REMARK  256  A    between atoms: _670  and  _673
REMARK  257  A    between atoms: _673  and  _674
REMARK  258  A    between atoms: _679  and  _681
REMARK  259  A    between atoms: _681  and  _682
REMARK  260  A    between atoms: _681  and  _684
REMARK  261  A    between atoms: _687  and  _689
REMARK  262  A    between atoms: _689  and  _690
REMARK  263  A    between atoms: _689  and  _692
REMARK  264  A    between atoms: _692  and  _693
REMARK  265  A    between atoms: _697  and  _698
REMARK  266  A    between atoms: _703  and  _705
REMARK  267  A    between atoms: _705  and  _706
REMARK  268  A    between atoms: _705  and  _708
REMARK  269  A    between atoms: _708  and  _709
REMARK  270  A    between atoms: _714  and  _715
REMARK  271  A    between atoms: _717  and  _719
REMARK  272  A    between atoms: _719  and  _720
REMARK  273  A    between atoms: _719  and  _722
REMARK  274  A    between atoms: _722  and  _723
REMARK  275  A    between atoms: _723  and  _724
REMARK  276  A    between atoms: _724  and  _725
REMARK  277  A    between atoms: _734  and  _736
REMARK  278  A    between atoms: _736  and  _737
REMARK  279  A    between atoms: _736  and  _739
REMARK  280  A    between atoms: _739  and  _740
REMARK  281  A    between atoms: _745  and  _746
REMARK  282  A    between atoms: _748  and  _750
REMARK  283  A    between atoms: _750  and  _751
REMARK  284  A    between atoms: _750  and  _753
REMARK  285  A    between atoms: _753  and  _754
REMARK  286  A    between atoms: _760  and  _762
REMARK  287  A    between atoms: _762  and  _763
REMARK  288  A    between atoms: _762  and  _765
REMARK  289  A    between atoms: _765  and  _766
REMARK  290  A    between atoms: _768  and  _770
REMARK  291  A    between atoms: _770  and  _771
REMARK  292  A    between atoms: _770  and  _773
REMARK  293  A    between atoms: _773  and  _774
REMARK  294  A    between atoms: _780  and  _782
REMARK  295  A    between atoms: _782  and  _783
REMARK  296  A    between atoms: _782  and  _785
REMARK  297  A    between atoms: _785  and  _786
REMARK  298  A    between atoms: _786  and  _787
REMARK                            x       y       z     vdW  Elec       q    Type
REMARK                         _______ _______ _______ _____ _____    ______ ____
ROOT
ATOM      1  O   HOH     1       3.102 -13.964 -30.764  0.00  0.00    +0.000 OA
ENDROOT
TORSDOF 0
REMARK  Name = ../refined-set-2016/4ca6/4ca6_pocket.pdb
REMARK  298 active torsions:
REMARK  status: ('A' for Active; 'I' for Inactive)
REMARK    1  A    between atoms: _1  and  _3
REMARK    2  A    between atoms: _3  and  _4
REMARK    3  A    between atoms: _3  and  _6
REMARK    4  A    between atoms: _6  and  _7
REMARK    5  A    between atoms: _10  and  _12
REMARK    6  A    between atoms: _12  and  _13
REMARK    7  A    between atoms: _12  and  _15
REMARK    8  A    between atoms: _15  and  _16
REMARK    9  A    between atoms: _18  and  _20
REMARK   10  A    between atoms: _20  and  _21
REMARK   11  A    between atoms: _20  and  _23
REMARK   12  A    between atoms: _23  and  _24
REMARK   13  A    between atoms: _29  and  _30
REMARK   14  A    between atoms: _32  and  _34
REMARK   15  A    between atoms: _34  and  _35
REMARK   16  A    between atoms: _34  and  _37
REMARK   17  A    between atoms: _37  and  _38
REMARK   18  A    between atoms: _48  and  _50
REMARK   19  A    between atoms: _50  and  _51
REMARK   20  A    between atoms: _50  and  _53
REMARK   21  A    between atoms: _53  and  _54
REMARK   22  A    between atoms: _57  and  _59
REMARK   23  A    between atoms: _59  and  _60
REMARK   24  A    between atoms: _59  and  _62
REMARK   25  A    between atoms: _62  and  _63
REMARK   26  A    between atoms: _73  and  _75
REMARK   27  A    between atoms: _75  and  _76
REMARK   28  A    between atoms: _75  and  _78
REMARK   29  A    between atoms: _78  and  _79
REMARK   30  A    between atoms: _79  and  _80
REMARK   31  A    between atoms: _85  and  _87
REMARK   32  A    between atoms: _87  and  _88
REMARK   33  A    between atoms: _87  and  _90
REMARK   34  A    between atoms: _90  and  _91
REMARK   35  A    between atoms: _93  and  _95
REMARK   36  A    between atoms: _95  and  _96
REMARK   37  A    between atoms: _95  and  _98
REMARK   38  A    between atoms: _98  and  _99
REMARK   39  A    between atoms: _99  and  _100
REMARK   40  A    between atoms: _103  and  _105
REMARK   41  A    between atoms: _105  and  _106
REMARK   42  A    between atoms: _105  and  _108
REMARK   43  A    between atoms: _111  and  _113
REMARK   44  A    between atoms: _113  and  _114
REMARK   45  A    between atoms: _113  and  _116
REMARK   46  A    between atoms: _118  and  _120
REMARK   47  A    between atoms: _120  and  _121
REMARK   48  A    between atoms: _120  and  _123
REMARK   49  A    between atoms: _123  and  _124
REMARK   50  A    between atoms: _129  and  _131
REMARK   51  A    between atoms: _131  and  _132
REMARK   52  A    between atoms: _135  and  _137
REMARK   53  A    between atoms: _137  and  _138
REMARK   54  A    between atoms: _137  and  _140
REMARK   55  A    between atoms: _140  and  _141
REMARK   56  A    between atoms: _143  and  _145
REMARK   57  A    between atoms: _145  and  _146
REMARK   58  A    between atoms: _149  and  _151
REMARK   59  A    between atoms: _151  and  _152
REMARK   60  A    between atoms: _151  and  _154
REMARK   61  A    between atoms: _154  and  _155
REMARK   62  A    between atoms: _165  and  _167
REMARK   63  A    between atoms: _167  and  _168
REMARK   64  A    between atoms: _167  and  _170
REMARK   65  A    between atoms: _170  and  _171
REMARK   66  A    between atoms: _174  and  _176
REMARK   67  A    between atoms: _176  and  _177
REMARK   68  A    between atoms: _176  and  _179
REMARK   69  A    between atoms: _179  and  _180
REMARK   70  A    between atoms: _185  and  _186
REMARK   71  A    between atoms: _188  and  _190
REMARK   72  A    between atoms: _190  and  _191
REMARK   73  A    between atoms: _190  and  _193
REMARK   74  A    between atoms: _193  and  _194
REMARK   75  A    between atoms: _194  and  _195
REMARK   76  A    between atoms: _195  and  _196
REMARK   77  A    between atoms: _205  and  _207
REMARK   78  A    between atoms: _207  and  _208
REMARK   79  A    between atoms: _207  and  _210
REMARK   80  A    between atoms: _210  and  _211
REMARK   81  A    between atoms: _214  and  _216
REMARK   82  A    between atoms: _216  and  _217
REMARK   83  A    between atoms: _216  and  _219
REMARK   84  A    between atoms: _219  and  _220
REMARK   85  A    between atoms: _220  and  _221
REMARK   86  A    between atoms: _221  and  _222
REMARK   87  A    between atoms: _222  and  _223
REMARK   88  A    between atoms: _227  and  _229
REMARK   89  A    between atoms: _229  and  _230
REMARK   90  A    between atoms: _229  and  _232
REMARK   91  A    between atoms: _232  and  _233
REMARK   92  A    between atoms: _233  and  _234
REMARK   93  A    between atoms: _239  and  _241
REMARK   94  A    between atoms: _241  and  _242
REMARK   95  A    between atoms: _241  and  _244
REMARK   96  A    between atoms: _244  and  _245
REMARK   97  A    between atoms: _245  and  _246
REMARK   98  A    between atoms: _246  and  _247
REMARK   99  A    between atoms: _256  and  _258
REMARK  100  A    between atoms: _258  and  _259
REMARK  101  A    between atoms: _258  and  _261
REMARK  102  A    between atoms: _261  and  _262
REMARK  103  A    between atoms: _262  and  _263
REMARK  104  A    between atoms: _265  and  _267
REMARK  105  A    between atoms: _267  and  _268
REMARK  106  A    between atoms: _267  and  _270
REMARK  107  A    between atoms: _270  and  _271
REMARK  108  A    between atoms: _274  and  _276
REMARK  109  A    between atoms: _276  and  _277
REMARK  110  A    between atoms: _276  and  _279
REMARK  111  A    between atoms: _279  and  _280
REMARK  112  A    between atoms: _280  and  _281
REMARK  113  A    between atoms: _286  and  _288
REMARK  114  A    between atoms: _288  and  _289
REMARK  115  A    between atoms: _288  and  _291
REMARK  116  A    between atoms: _291  and  _292
REMARK  117  A    between atoms: _295  and  _297
REMARK  118  A    between atoms: _297  and  _298
REMARK  119  A    between atoms: _297  and  _300
REMARK  120  A    between atoms: _300  and  _301
REMARK  121  A    between atoms: _303  and  _305
REMARK  122  A    between atoms: _305  and  _306
REMARK  123  A    between atoms: _305  and  _308
REMARK  124  A    between atoms: _308  and  _309
REMARK  125  A    between atoms: _312  and  _314
REMARK  126  A    between atoms: _314  and  _315
REMARK  127  A    between atoms: _314  and  _317
REMARK  128  A    between atoms: _320  and  _322
REMARK  129  A    between atoms: _322  and  _323
REMARK  130  A    between atoms: _322  and  _325
REMARK  131  A    between atoms: _325  and  _326
REMARK  132  A    between atoms: _331  and  _333
REMARK  133  A    between atoms: _344  and  _347
REMARK  134  A    between atoms: _347  and  _348
REMARK  135  A    between atoms: _348  and  _349
REMARK  136  A    between atoms: _354  and  _357
REMARK  137  A    between atoms: _357  and  _358
REMARK  138  A    between atoms: _358  and  _359
REMARK  139  A    between atoms: _368  and  _369
REMARK  140  A    between atoms: _377  and  _379
REMARK  141  A    between atoms: _379  and  _380
REMARK  142  A    between atoms: _379  and  _382
REMARK  143  A    between atoms: _382  and  _383
REMARK  144  A    between atoms: _386  and  _388
REMARK  145  A    between atoms: _388  and  _389
REMARK  146  A    between atoms: _388  and  _391
REMARK  147  A    between atoms: _391  and  _392
REMARK  148  A    between atoms: _397  and  _398
REMARK  149  A    between atoms: _400  and  _402
REMARK  150  A    between atoms: _402  and  _403
REMARK  151  A    between atoms: _402  and  _405
REMARK  152  A    between atoms: _405  and  _406
REMARK  153  A    between atoms: _411  and  _412
REMARK  154  A    between atoms: _414  and  _416
REMARK  155  A    between atoms: _416  and  _417
REMARK  156  A    between atoms: _416  and  _419
REMARK  157  A    between atoms: _419  and  _420
REMARK  158  A    between atoms: _425  and  _426
REMARK  159  A    between atoms: _428  and  _430
REMARK  160  A    between atoms: _430  and  _431
REMARK  161  A    between atoms: _430  and  _433
REMARK  162  A    between atoms: _433  and  _434
REMARK  163  A    between atoms: _434  and  _435
REMARK  164  A    between atoms: _435  and  _436
REMARK  165  A    between atoms: _445  and  _447
REMARK  166  A    between atoms: _447  and  _448
REMARK  167  A    between atoms: _447  and  _450
REMARK  168  A    between atoms: _450  and  _451
REMARK  169  A    between atoms: _451  and  _452
REMARK  170  A    between atoms: _452  and  _453
REMARK  171  A    between atoms: _462  and  _464
REMARK  172  A    between atoms: _464  and  _465
REMARK  173  A    between atoms: _467  and  _469
REMARK  174  A    between atoms: _469  and  _470
REMARK  175  A    between atoms: _473  and  _475
REMARK  176  A    between atoms: _475  and  _476
REMARK  177  A    between atoms: _475  and  _478
REMARK  178  A    between atoms: _478  and  _479
REMARK  179  A    between atoms: _485  and  _486
REMARK  180  A    between atoms: _491  and  _493
REMARK  181  A    between atoms: _493  and  _494
REMARK  182  A    between atoms: _496  and  _498
REMARK  183  A    between atoms: _498  and  _499
REMARK  184  A    between atoms: _498  and  _501
REMARK  185  A    between atoms: _501  and  _502
REMARK  186  A    between atoms: _508  and  _510
REMARK  187  A    between atoms: _510  and  _511
REMARK  188  A    between atoms: _510  and  _513
REMARK  189  A    between atoms: _513  and  _514
REMARK  190  A    between atoms: _519  and  _521
REMARK  191  A    between atoms: _521  and  _522
REMARK  192  A    between atoms: _521  and  _524
REMARK  193  A    between atoms: _524  and  _525
REMARK  194  A    between atoms: _525  and  _526
REMARK  195  A    between atoms: _526  and  _527
REMARK  196  A    between atoms: _527  and  ZN_792
REMARK  197  A    between atoms: _529  and  _531
REMARK  198  A    between atoms: _531  and  _532
REMARK  199  A    between atoms: _535  and  _537
REMARK  200  A    between atoms: _537  and  _538
REMARK  201  A    between atoms: _540  and  _542
REMARK  202  A    between atoms: _542  and  _543
REMARK  203  A    between atoms: _542  and  _545
REMARK  204  A    between atoms: _545  and  _546
REMARK  205  A    between atoms: _549  and  _551
REMARK  206  A    between atoms: _551  and  _552
REMARK  207  A    between atoms: _551  and  _554
REMARK  208  A    between atoms: _557  and  _559
REMARK  209  A    between atoms: _559  and  _560
REMARK  210  A    between atoms: _563  and  _565
REMARK  211  A    between atoms: _565  and  _566
REMARK  212  A    between atoms: _565  and  _568
REMARK  213  A    between atoms: _568  and  _569
REMARK  214  A    between atoms: _572  and  _574
REMARK  215  A    between atoms: _574  and  _575
REMARK  216  A    between atoms: _574  and  _577
REMARK  217  A    between atoms: _577  and  _578
REMARK  218  A    between atoms: _578  and  _579
REMARK  219  A    between atoms: _582  and  _584
REMARK  220  A    between atoms: _584  and  _585
REMARK  221  A    between atoms: _584  and  _587
REMARK  222  A    between atoms: _587  and  _588
REMARK  223  A    between atoms: _588  and  _589
REMARK  224  A    between atoms: _589  and  _590
REMARK  225  A    between atoms: _590  and  _591
REMARK  226  A    between atoms: _595  and  _597
REMARK  227  A    between atoms: _597  and  _598
REMARK  228  A    between atoms: _597  and  _600
REMARK  229  A    between atoms: _600  and  _601
REMARK  230  A    between atoms: _607  and  _609
REMARK  231  A    between atoms: _609  and  _610
REMARK  232  A    between atoms: _609  and  _612
REMARK  233  A    between atoms: _612  and  _613
REMARK  234  A    between atoms: _619  and  _621
REMARK  235  A    between atoms: _621  and  _622
REMARK  236  A    between atoms: _624  and  _626
REMARK  237  A    between atoms: _626  and  _627
REMARK  238  A    between atoms: _626  and  _629
REMARK  239  A    between atoms: _632  and  _634
REMARK  240  A    between atoms: _634  and  _635
REMARK  241  A    between atoms: _634  and  _637
REMARK  242  A    between atoms: _637  and  _638
REMARK  243  A    between atoms: _638  and  _639
REMARK  244  A    between atoms: _639  and  _640
REMARK  245  A    between atoms: _640  and  _641
REMARK  246  A    between atoms: _645  and  _647
REMARK  247  A    between atoms: _647  and  _648
REMARK  248  A    between atoms: _647  and  _650
REMARK  249  A    between atoms: _650  and  _651
REMARK  250  A    between atoms: _657  and  _659
REMARK  251  A    between atoms: _659  and  _660
REMARK  252  A    between atoms: _659  and  _662
REMARK  253  A    between atoms: _662  and  _663
REMARK  254  A    between atoms: _668  and  _670
REMARK  255  A    between atoms: _670  and  _671
REMARK  256  A    between atoms: _670  and  _673
REMARK  257  A    between atoms: _673  and  _674
REMARK  258  A    between atoms: _679  and  _681
REMARK  259  A    between atoms: _681  and  _682
REMARK  260  A    between atoms: _681  and  _684
REMARK  261  A    between atoms: _687  and  _689
REMARK  262  A    between atoms: _689  and  _690
REMARK  263  A    between atoms: _689  and  _692
REMARK  264  A    between atoms: _692  and  _693
REMARK  265  A    between atoms: _697  and  _698
REMARK  266  A    between atoms: _703  and  _705
REMARK  267  A    between atoms: _705  and  _706
REMARK  268  A    between atoms: _705  and  _708
REMARK  269  A    between atoms: _708  and  _709
REMARK  270  A    between atoms: _714  and  _715
REMARK  271  A    between atoms: _717  and  _719
REMARK  272  A    between atoms: _719  and  _720
REMARK  273  A    between atoms: _719  and  _722
REMARK  274  A    between atoms: _722  and  _723
REMARK  275  A    between atoms: _723  and  _724
REMARK  276  A    between atoms: _724  and  _725
REMARK  277  A    between atoms: _734  and  _736
REMARK  278  A    between atoms: _736  and  _737
REMARK  279  A    between atoms: _736  and  _739
REMARK  280  A    between atoms: _739  and  _740
REMARK  281  A    between atoms: _745  and  _746
REMARK  282  A    between atoms: _748  and  _750
REMARK  283  A    between atoms: _750  and  _751
REMARK  284  A    between atoms: _750  and  _753
REMARK  285  A    between atoms: _753  and  _754
REMARK  286  A    between atoms: _760  and  _762
REMARK  287  A    between atoms: _762  and  _763
REMARK  288  A    between atoms: _762  and  _765
REMARK  289  A    between atoms: _765  and  _766
REMARK  290  A    between atoms: _768  and  _770
REMARK  291  A    between atoms: _770  and  _771
REMARK  292  A    between atoms: _770  and  _773
REMARK  293  A    between atoms: _773  and  _774
REMARK  294  A    between atoms: _780  and  _782
REMARK  295  A    between atoms: _782  and  _783
REMARK  296  A    between atoms: _782  and  _785
REMARK  297  A    between atoms: _785  and  _786
REMARK  298  A    between atoms: _786  and  _787
REMARK                            x       y       z     vdW  Elec       q    Type
REMARK                         _______ _______ _______ _____ _____    ______ ____
ROOT
ATOM      1  O   HOH     1       3.354 -10.449 -29.234  0.00  0.00    +0.000 OA
ENDROOT
TORSDOF 0
REMARK  Name = ../refined-set-2016/4ca6/4ca6_pocket.pdb
REMARK  298 active torsions:
REMARK  status: ('A' for Active; 'I' for Inactive)
REMARK    1  A    between atoms: _1  and  _3
REMARK    2  A    between atoms: _3  and  _4
REMARK    3  A    between atoms: _3  and  _6
REMARK    4  A    between atoms: _6  and  _7
REMARK    5  A    between atoms: _10  and  _12
REMARK    6  A    between atoms: _12  and  _13
REMARK    7  A    between atoms: _12  and  _15
REMARK    8  A    between atoms: _15  and  _16
REMARK    9  A    between atoms: _18  and  _20
REMARK   10  A    between atoms: _20  and  _21
REMARK   11  A    between atoms: _20  and  _23
REMARK   12  A    between atoms: _23  and  _24
REMARK   13  A    between atoms: _29  and  _30
REMARK   14  A    between atoms: _32  and  _34
REMARK   15  A    between atoms: _34  and  _35
REMARK   16  A    between atoms: _34  and  _37
REMARK   17  A    between atoms: _37  and  _38
REMARK   18  A    between atoms: _48  and  _50
REMARK   19  A    between atoms: _50  and  _51
REMARK   20  A    between atoms: _50  and  _53
REMARK   21  A    between atoms: _53  and  _54
REMARK   22  A    between atoms: _57  and  _59
REMARK   23  A    between atoms: _59  and  _60
REMARK   24  A    between atoms: _59  and  _62
REMARK   25  A    between atoms: _62  and  _63
REMARK   26  A    between atoms: _73  and  _75
REMARK   27  A    between atoms: _75  and  _76
REMARK   28  A    between atoms: _75  and  _78
REMARK   29  A    between atoms: _78  and  _79
REMARK   30  A    between atoms: _79  and  _80
REMARK   31  A    between atoms: _85  and  _87
REMARK   32  A    between atoms: _87  and  _88
REMARK   33  A    between atoms: _87  and  _90
REMARK   34  A    between atoms: _90  and  _91
REMARK   35  A    between atoms: _93  and  _95
REMARK   36  A    between atoms: _95  and  _96
REMARK   37  A    between atoms: _95  and  _98
REMARK   38  A    between atoms: _98  and  _99
REMARK   39  A    between atoms: _99  and  _100
REMARK   40  A    between atoms: _103  and  _105
REMARK   41  A    between atoms: _105  and  _106
REMARK   42  A    between atoms: _105  and  _108
REMARK   43  A    between atoms: _111  and  _113
REMARK   44  A    between atoms: _113  and  _114
REMARK   45  A    between atoms: _113  and  _116
REMARK   46  A    between atoms: _118  and  _120
REMARK   47  A    between atoms: _120  and  _121
REMARK   48  A    between atoms: _120  and  _123
REMARK   49  A    between atoms: _123  and  _124
REMARK   50  A    between atoms: _129  and  _131
REMARK   51  A    between atoms: _131  and  _132
REMARK   52  A    between atoms: _135  and  _137
REMARK   53  A    between atoms: _137  and  _138
REMARK   54  A    between atoms: _137  and  _140
REMARK   55  A    between atoms: _140  and  _141
REMARK   56  A    between atoms: _143  and  _145
REMARK   57  A    between atoms: _145  and  _146
REMARK   58  A    between atoms: _149  and  _151
REMARK   59  A    between atoms: _151  and  _152
REMARK   60  A    between atoms: _151  and  _154
REMARK   61  A    between atoms: _154  and  _155
REMARK   62  A    between atoms: _165  and  _167
REMARK   63  A    between atoms: _167  and  _168
REMARK   64  A    between atoms: _167  and  _170
REMARK   65  A    between atoms: _170  and  _171
REMARK   66  A    between atoms: _174  and  _176
REMARK   67  A    between atoms: _176  and  _177
REMARK   68  A    between atoms: _176  and  _179
REMARK   69  A    between atoms: _179  and  _180
REMARK   70  A    between atoms: _185  and  _186
REMARK   71  A    between atoms: _188  and  _190
REMARK   72  A    between atoms: _190  and  _191
REMARK   73  A    between atoms: _190  and  _193
REMARK   74  A    between atoms: _193  and  _194
REMARK   75  A    between atoms: _194  and  _195
REMARK   76  A    between atoms: _195  and  _196
REMARK   77  A    between atoms: _205  and  _207
REMARK   78  A    between atoms: _207  and  _208
REMARK   79  A    between atoms: _207  and  _210
REMARK   80  A    between atoms: _210  and  _211
REMARK   81  A    between atoms: _214  and  _216
REMARK   82  A    between atoms: _216  and  _217
REMARK   83  A    between atoms: _216  and  _219
REMARK   84  A    between atoms: _219  and  _220
REMARK   85  A    between atoms: _220  and  _221
REMARK   86  A    between atoms: _221  and  _222
REMARK   87  A    between atoms: _222  and  _223
REMARK   88  A    between atoms: _227  and  _229
REMARK   89  A    between atoms: _229  and  _230
REMARK   90  A    between atoms: _229  and  _232
REMARK   91  A    between atoms: _232  and  _233
REMARK   92  A    between atoms: _233  and  _234
REMARK   93  A    between atoms: _239  and  _241
REMARK   94  A    between atoms: _241  and  _242
REMARK   95  A    between atoms: _241  and  _244
REMARK   96  A    between atoms: _244  and  _245
REMARK   97  A    between atoms: _245  and  _246
REMARK   98  A    between atoms: _246  and  _247
REMARK   99  A    between atoms: _256  and  _258
REMARK  100  A    between atoms: _258  and  _259
REMARK  101  A    between atoms: _258  and  _261
REMARK  102  A    between atoms: _261  and  _262
REMARK  103  A    between atoms: _262  and  _263
REMARK  104  A    between atoms: _265  and  _267
REMARK  105  A    between atoms: _267  and  _268
REMARK  106  A    between atoms: _267  and  _270
REMARK  107  A    between atoms: _270  and  _271
REMARK  108  A    between atoms: _274  and  _276
REMARK  109  A    between atoms: _276  and  _277
REMARK  110  A    between atoms: _276  and  _279
REMARK  111  A    between atoms: _279  and  _280
REMARK  112  A    between atoms: _280  and  _281
REMARK  113  A    between atoms: _286  and  _288
REMARK  114  A    between atoms: _288  and  _289
REMARK  115  A    between atoms: _288  and  _291
REMARK  116  A    between atoms: _291  and  _292
REMARK  117  A    between atoms: _295  and  _297
REMARK  118  A    between atoms: _297  and  _298
REMARK  119  A    between atoms: _297  and  _300
REMARK  120  A    between atoms: _300  and  _301
REMARK  121  A    between atoms: _303  and  _305
REMARK  122  A    between atoms: _305  and  _306
REMARK  123  A    between atoms: _305  and  _308
REMARK  124  A    between atoms: _308  and  _309
REMARK  125  A    between atoms: _312  and  _314
REMARK  126  A    between atoms: _314  and  _315
REMARK  127  A    between atoms: _314  and  _317
REMARK  128  A    between atoms: _320  and  _322
REMARK  129  A    between atoms: _322  and  _323
REMARK  130  A    between atoms: _322  and  _325
REMARK  131  A    between atoms: _325  and  _326
REMARK  132  A    between atoms: _331  and  _333
REMARK  133  A    between atoms: _344  and  _347
REMARK  134  A    between atoms: _347  and  _348
REMARK  135  A    between atoms: _348  and  _349
REMARK  136  A    between atoms: _354  and  _357
REMARK  137  A    between atoms: _357  and  _358
REMARK  138  A    between atoms: _358  and  _359
REMARK  139  A    between atoms: _368  and  _369
REMARK  140  A    between atoms: _377  and  _379
REMARK  141  A    between atoms: _379  and  _380
REMARK  142  A    between atoms: _379  and  _382
REMARK  143  A    between atoms: _382  and  _383
REMARK  144  A    between atoms: _386  and  _388
REMARK  145  A    between atoms: _388  and  _389
REMARK  146  A    between atoms: _388  and  _391
REMARK  147  A    between atoms: _391  and  _392
REMARK  148  A    between atoms: _397  and  _398
REMARK  149  A    between atoms: _400  and  _402
REMARK  150  A    between atoms: _402  and  _403
REMARK  151  A    between atoms: _402  and  _405
REMARK  152  A    between atoms: _405  and  _406
REMARK  153  A    between atoms: _411  and  _412
REMARK  154  A    between atoms: _414  and  _416
REMARK  155  A    between atoms: _416  and  _417
REMARK  156  A    between atoms: _416  and  _419
REMARK  157  A    between atoms: _419  and  _420
REMARK  158  A    between atoms: _425  and  _426
REMARK  159  A    between atoms: _428  and  _430
REMARK  160  A    between atoms: _430  and  _431
REMARK  161  A    between atoms: _430  and  _433
REMARK  162  A    between atoms: _433  and  _434
REMARK  163  A    between atoms: _434  and  _435
REMARK  164  A    between atoms: _435  and  _436
REMARK  165  A    between atoms: _445  and  _447
REMARK  166  A    between atoms: _447  and  _448
REMARK  167  A    between atoms: _447  and  _450
REMARK  168  A    between atoms: _450  and  _451
REMARK  169  A    between atoms: _451  and  _452
REMARK  170  A    between atoms: _452  and  _453
REMARK  171  A    between atoms: _462  and  _464
REMARK  172  A    between atoms: _464  and  _465
REMARK  173  A    between atoms: _467  and  _469
REMARK  174  A    between atoms: _469  and  _470
REMARK  175  A    between atoms: _473  and  _475
REMARK  176  A    between atoms: _475  and  _476
REMARK  177  A    between atoms: _475  and  _478
REMARK  178  A    between atoms: _478  and  _479
REMARK  179  A    between atoms: _485  and  _486
REMARK  180  A    between atoms: _491  and  _493
REMARK  181  A    between atoms: _493  and  _494
REMARK  182  A    between atoms: _496  and  _498
REMARK  183  A    between atoms: _498  and  _499
REMARK  184  A    between atoms: _498  and  _501
REMARK  185  A    between atoms: _501  and  _502
REMARK  186  A    between atoms: _508  and  _510
REMARK  187  A    between atoms: _510  and  _511
REMARK  188  A    between atoms: _510  and  _513
REMARK  189  A    between atoms: _513  and  _514
REMARK  190  A    between atoms: _519  and  _521
REMARK  191  A    between atoms: _521  and  _522
REMARK  192  A    between atoms: _521  and  _524
REMARK  193  A    between atoms: _524  and  _525
REMARK  194  A    between atoms: _525  and  _526
REMARK  195  A    between atoms: _526  and  _527
REMARK  196  A    between atoms: _527  and  ZN_792
REMARK  197  A    between atoms: _529  and  _531
REMARK  198  A    between atoms: _531  and  _532
REMARK  199  A    between atoms: _535  and  _537
REMARK  200  A    between atoms: _537  and  _538
REMARK  201  A    between atoms: _540  and  _542
REMARK  202  A    between atoms: _542  and  _543
REMARK  203  A    between atoms: _542  and  _545
REMARK  204  A    between atoms: _545  and  _546
REMARK  205  A    between atoms: _549  and  _551
REMARK  206  A    between atoms: _551  and  _552
REMARK  207  A    between atoms: _551  and  _554
REMARK  208  A    between atoms: _557  and  _559
REMARK  209  A    between atoms: _559  and  _560
REMARK  210  A    between atoms: _563  and  _565
REMARK  211  A    between atoms: _565  and  _566
REMARK  212  A    between atoms: _565  and  _568
REMARK  213  A    between atoms: _568  and  _569
REMARK  214  A    between atoms: _572  and  _574
REMARK  215  A    between atoms: _574  and  _575
REMARK  216  A    between atoms: _574  and  _577
REMARK  217  A    between atoms: _577  and  _578
REMARK  218  A    between atoms: _578  and  _579
REMARK  219  A    between atoms: _582  and  _584
REMARK  220  A    between atoms: _584  and  _585
REMARK  221  A    between atoms: _584  and  _587
REMARK  222  A    between atoms: _587  and  _588
REMARK  223  A    between atoms: _588  and  _589
REMARK  224  A    between atoms: _589  and  _590
REMARK  225  A    between atoms: _590  and  _591
REMARK  226  A    between atoms: _595  and  _597
REMARK  227  A    between atoms: _597  and  _598
REMARK  228  A    between atoms: _597  and  _600
REMARK  229  A    between atoms: _600  and  _601
REMARK  230  A    between atoms: _607  and  _609
REMARK  231  A    between atoms: _609  and  _610
REMARK  232  A    between atoms: _609  and  _612
REMARK  233  A    between atoms: _612  and  _613
REMARK  234  A    between atoms: _619  and  _621
REMARK  235  A    between atoms: _621  and  _622
REMARK  236  A    between atoms: _624  and  _626
REMARK  237  A    between atoms: _626  and  _627
REMARK  238  A    between atoms: _626  and  _629
REMARK  239  A    between atoms: _632  and  _634
REMARK  240  A    between atoms: _634  and  _635
REMARK  241  A    between atoms: _634  and  _637
REMARK  242  A    between atoms: _637  and  _638
REMARK  243  A    between atoms: _638  and  _639
REMARK  244  A    between atoms: _639  and  _640
REMARK  245  A    between atoms: _640  and  _641
REMARK  246  A    between atoms: _645  and  _647
REMARK  247  A    between atoms: _647  and  _648
REMARK  248  A    between atoms: _647  and  _650
REMARK  249  A    between atoms: _650  and  _651
REMARK  250  A    between atoms: _657  and  _659
REMARK  251  A    between atoms: _659  and  _660
REMARK  252  A    between atoms: _659  and  _662
REMARK  253  A    between atoms: _662  and  _663
REMARK  254  A    between atoms: _668  and  _670
REMARK  255  A    between atoms: _670  and  _671
REMARK  256  A    between atoms: _670  and  _673
REMARK  257  A    between atoms: _673  and  _674
REMARK  258  A    between atoms: _679  and  _681
REMARK  259  A    between atoms: _681  and  _682
REMARK  260  A    between atoms: _681  and  _684
REMARK  261  A    between atoms: _687  and  _689
REMARK  262  A    between atoms: _689  and  _690
REMARK  263  A    between atoms: _689  and  _692
REMARK  264  A    between atoms: _692  and  _693
REMARK  265  A    between atoms: _697  and  _698
REMARK  266  A    between atoms: _703  and  _705
REMARK  267  A    between atoms: _705  and  _706
REMARK  268  A    between atoms: _705  and  _708
REMARK  269  A    between atoms: _708  and  _709
REMARK  270  A    between atoms: _714  and  _715
REMARK  271  A    between atoms: _717  and  _719
REMARK  272  A    between atoms: _719  and  _720
REMARK  273  A    between atoms: _719  and  _722
REMARK  274  A    between atoms: _722  and  _723
REMARK  275  A    between atoms: _723  and  _724
REMARK  276  A    between atoms: _724  and  _725
REMARK  277  A    between atoms: _734  and  _736
REMARK  278  A    between atoms: _736  and  _737
REMARK  279  A    between atoms: _736  and  _739
REMARK  280  A    between atoms: _739  and  _740
REMARK  281  A    between atoms: _745  and  _746
REMARK  282  A    between atoms: _748  and  _750
REMARK  283  A    between atoms: _750  and  _751
REMARK  284  A    between atoms: _750  and  _753
REMARK  285  A    between atoms: _753  and  _754
REMARK  286  A    between atoms: _760  and  _762
REMARK  287  A    between atoms: _762  and  _763
REMARK  288  A    between atoms: _762  and  _765
REMARK  289  A    between atoms: _765  and  _766
REMARK  290  A    between atoms: _768  and  _770
REMARK  291  A    between atoms: _770  and  _771
REMARK  292  A    between atoms: _770  and  _773
REMARK  293  A    between atoms: _773  and  _774
REMARK  294  A    between atoms: _780  and  _782
REMARK  295  A    between atoms: _782  and  _783
REMARK  296  A    between atoms: _782  and  _785
REMARK  297  A    between atoms: _785  and  _786
REMARK  298  A    between atoms: _786  and  _787
REMARK                            x       y       z     vdW  Elec       q    Type
REMARK                         _______ _______ _______ _____ _____    ______ ____
ROOT
ATOM      1  O   HOH     1       6.819  -8.106 -26.903  0.00  0.00    +0.000 OA
ENDROOT
TORSDOF 0
REMARK  Name = ../refined-set-2016/4ca6/4ca6_pocket.pdb
REMARK  298 active torsions:
REMARK  status: ('A' for Active; 'I' for Inactive)
REMARK    1  A    between atoms: _1  and  _3
REMARK    2  A    between atoms: _3  and  _4
REMARK    3  A    between atoms: _3  and  _6
REMARK    4  A    between atoms: _6  and  _7
REMARK    5  A    between atoms: _10  and  _12
REMARK    6  A    between atoms: _12  and  _13
REMARK    7  A    between atoms: _12  and  _15
REMARK    8  A    between atoms: _15  and  _16
REMARK    9  A    between atoms: _18  and  _20
REMARK   10  A    between atoms: _20  and  _21
REMARK   11  A    between atoms: _20  and  _23
REMARK   12  A    between atoms: _23  and  _24
REMARK   13  A    between atoms: _29  and  _30
REMARK   14  A    between atoms: _32  and  _34
REMARK   15  A    between atoms: _34  and  _35
REMARK   16  A    between atoms: _34  and  _37
REMARK   17  A    between atoms: _37  and  _38
REMARK   18  A    between atoms: _48  and  _50
REMARK   19  A    between atoms: _50  and  _51
REMARK   20  A    between atoms: _50  and  _53
REMARK   21  A    between atoms: _53  and  _54
REMARK   22  A    between atoms: _57  and  _59
REMARK   23  A    between atoms: _59  and  _60
REMARK   24  A    between atoms: _59  and  _62
REMARK   25  A    between atoms: _62  and  _63
REMARK   26  A    between atoms: _73  and  _75
REMARK   27  A    between atoms: _75  and  _76
REMARK   28  A    between atoms: _75  and  _78
REMARK   29  A    between atoms: _78  and  _79
REMARK   30  A    between atoms: _79  and  _80
REMARK   31  A    between atoms: _85  and  _87
REMARK   32  A    between atoms: _87  and  _88
REMARK   33  A    between atoms: _87  and  _90
REMARK   34  A    between atoms: _90  and  _91
REMARK   35  A    between atoms: _93  and  _95
REMARK   36  A    between atoms: _95  and  _96
REMARK   37  A    between atoms: _95  and  _98
REMARK   38  A    between atoms: _98  and  _99
REMARK   39  A    between atoms: _99  and  _100
REMARK   40  A    between atoms: _103  and  _105
REMARK   41  A    between atoms: _105  and  _106
REMARK   42  A    between atoms: _105  and  _108
REMARK   43  A    between atoms: _111  and  _113
REMARK   44  A    between atoms: _113  and  _114
REMARK   45  A    between atoms: _113  and  _116
REMARK   46  A    between atoms: _118  and  _120
REMARK   47  A    between atoms: _120  and  _121
REMARK   48  A    between atoms: _120  and  _123
REMARK   49  A    between atoms: _123  and  _124
REMARK   50  A    between atoms: _129  and  _131
REMARK   51  A    between atoms: _131  and  _132
REMARK   52  A    between atoms: _135  and  _137
REMARK   53  A    between atoms: _137  and  _138
REMARK   54  A    between atoms: _137  and  _140
REMARK   55  A    between atoms: _140  and  _141
REMARK   56  A    between atoms: _143  and  _145
REMARK   57  A    between atoms: _145  and  _146
REMARK   58  A    between atoms: _149  and  _151
REMARK   59  A    between atoms: _151  and  _152
REMARK   60  A    between atoms: _151  and  _154
REMARK   61  A    between atoms: _154  and  _155
REMARK   62  A    between atoms: _165  and  _167
REMARK   63  A    between atoms: _167  and  _168
REMARK   64  A    between atoms: _167  and  _170
REMARK   65  A    between atoms: _170  and  _171
REMARK   66  A    between atoms: _174  and  _176
REMARK   67  A    between atoms: _176  and  _177
REMARK   68  A    between atoms: _176  and  _179
REMARK   69  A    between atoms: _179  and  _180
REMARK   70  A    between atoms: _185  and  _186
REMARK   71  A    between atoms: _188  and  _190
REMARK   72  A    between atoms: _190  and  _191
REMARK   73  A    between atoms: _190  and  _193
REMARK   74  A    between atoms: _193  and  _194
REMARK   75  A    between atoms: _194  and  _195
REMARK   76  A    between atoms: _195  and  _196
REMARK   77  A    between atoms: _205  and  _207
REMARK   78  A    between atoms: _207  and  _208
REMARK   79  A    between atoms: _207  and  _210
REMARK   80  A    between atoms: _210  and  _211
REMARK   81  A    between atoms: _214  and  _216
REMARK   82  A    between atoms: _216  and  _217
REMARK   83  A    between atoms: _216  and  _219
REMARK   84  A    between atoms: _219  and  _220
REMARK   85  A    between atoms: _220  and  _221
REMARK   86  A    between atoms: _221  and  _222
REMARK   87  A    between atoms: _222  and  _223
REMARK   88  A    between atoms: _227  and  _229
REMARK   89  A    between atoms: _229  and  _230
REMARK   90  A    between atoms: _229  and  _232
REMARK   91  A    between atoms: _232  and  _233
REMARK   92  A    between atoms: _233  and  _234
REMARK   93  A    between atoms: _239  and  _241
REMARK   94  A    between atoms: _241  and  _242
REMARK   95  A    between atoms: _241  and  _244
REMARK   96  A    between atoms: _244  and  _245
REMARK   97  A    between atoms: _245  and  _246
REMARK   98  A    between atoms: _246  and  _247
REMARK   99  A    between atoms: _256  and  _258
REMARK  100  A    between atoms: _258  and  _259
REMARK  101  A    between atoms: _258  and  _261
REMARK  102  A    between atoms: _261  and  _262
REMARK  103  A    between atoms: _262  and  _263
REMARK  104  A    between atoms: _265  and  _267
REMARK  105  A    between atoms: _267  and  _268
REMARK  106  A    between atoms: _267  and  _270
REMARK  107  A    between atoms: _270  and  _271
REMARK  108  A    between atoms: _274  and  _276
REMARK  109  A    between atoms: _276  and  _277
REMARK  110  A    between atoms: _276  and  _279
REMARK  111  A    between atoms: _279  and  _280
REMARK  112  A    between atoms: _280  and  _281
REMARK  113  A    between atoms: _286  and  _288
REMARK  114  A    between atoms: _288  and  _289
REMARK  115  A    between atoms: _288  and  _291
REMARK  116  A    between atoms: _291  and  _292
REMARK  117  A    between atoms: _295  and  _297
REMARK  118  A    between atoms: _297  and  _298
REMARK  119  A    between atoms: _297  and  _300
REMARK  120  A    between atoms: _300  and  _301
REMARK  121  A    between atoms: _303  and  _305
REMARK  122  A    between atoms: _305  and  _306
REMARK  123  A    between atoms: _305  and  _308
REMARK  124  A    between atoms: _308  and  _309
REMARK  125  A    between atoms: _312  and  _314
REMARK  126  A    between atoms: _314  and  _315
REMARK  127  A    between atoms: _314  and  _317
REMARK  128  A    between atoms: _320  and  _322
REMARK  129  A    between atoms: _322  and  _323
REMARK  130  A    between atoms: _322  and  _325
REMARK  131  A    between atoms: _325  and  _326
REMARK  132  A    between atoms: _331  and  _333
REMARK  133  A    between atoms: _344  and  _347
REMARK  134  A    between atoms: _347  and  _348
REMARK  135  A    between atoms: _348  and  _349
REMARK  136  A    between atoms: _354  and  _357
REMARK  137  A    between atoms: _357  and  _358
REMARK  138  A    between atoms: _358  and  _359
REMARK  139  A    between atoms: _368  and  _369
REMARK  140  A    between atoms: _377  and  _379
REMARK  141  A    between atoms: _379  and  _380
REMARK  142  A    between atoms: _379  and  _382
REMARK  143  A    between atoms: _382  and  _383
REMARK  144  A    between atoms: _386  and  _388
REMARK  145  A    between atoms: _388  and  _389
REMARK  146  A    between atoms: _388  and  _391
REMARK  147  A    between atoms: _391  and  _392
REMARK  148  A    between atoms: _397  and  _398
REMARK  149  A    between atoms: _400  and  _402
REMARK  150  A    between atoms: _402  and  _403
REMARK  151  A    between atoms: _402  and  _405
REMARK  152  A    between atoms: _405  and  _406
REMARK  153  A    between atoms: _411  and  _412
REMARK  154  A    between atoms: _414  and  _416
REMARK  155  A    between atoms: _416  and  _417
REMARK  156  A    between atoms: _416  and  _419
REMARK  157  A    between atoms: _419  and  _420
REMARK  158  A    between atoms: _425  and  _426
REMARK  159  A    between atoms: _428  and  _430
REMARK  160  A    between atoms: _430  and  _431
REMARK  161  A    between atoms: _430  and  _433
REMARK  162  A    between atoms: _433  and  _434
REMARK  163  A    between atoms: _434  and  _435
REMARK  164  A    between atoms: _435  and  _436
REMARK  165  A    between atoms: _445  and  _447
REMARK  166  A    between atoms: _447  and  _448
REMARK  167  A    between atoms: _447  and  _450
REMARK  168  A    between atoms: _450  and  _451
REMARK  169  A    between atoms: _451  and  _452
REMARK  170  A    between atoms: _452  and  _453
REMARK  171  A    between atoms: _462  and  _464
REMARK  172  A    between atoms: _464  and  _465
REMARK  173  A    between atoms: _467  and  _469
REMARK  174  A    between atoms: _469  and  _470
REMARK  175  A    between atoms: _473  and  _475
REMARK  176  A    between atoms: _475  and  _476
REMARK  177  A    between atoms: _475  and  _478
REMARK  178  A    between atoms: _478  and  _479
REMARK  179  A    between atoms: _485  and  _486
REMARK  180  A    between atoms: _491  and  _493
REMARK  181  A    between atoms: _493  and  _494
REMARK  182  A    between atoms: _496  and  _498
REMARK  183  A    between atoms: _498  and  _499
REMARK  184  A    between atoms: _498  and  _501
REMARK  185  A    between atoms: _501  and  _502
REMARK  186  A    between atoms: _508  and  _510
REMARK  187  A    between atoms: _510  and  _511
REMARK  188  A    between atoms: _510  and  _513
REMARK  189  A    between atoms: _513  and  _514
REMARK  190  A    between atoms: _519  and  _521
REMARK  191  A    between atoms: _521  and  _522
REMARK  192  A    between atoms: _521  and  _524
REMARK  193  A    between atoms: _524  and  _525
REMARK  194  A    between atoms: _525  and  _526
REMARK  195  A    between atoms: _526  and  _527
REMARK  196  A    between atoms: _527  and  ZN_792
REMARK  197  A    between atoms: _529  and  _531
REMARK  198  A    between atoms: _531  and  _532
REMARK  199  A    between atoms: _535  and  _537
REMARK  200  A    between atoms: _537  and  _538
REMARK  201  A    between atoms: _540  and  _542
REMARK  202  A    between atoms: _542  and  _543
REMARK  203  A    between atoms: _542  and  _545
REMARK  204  A    between atoms: _545  and  _546
REMARK  205  A    between atoms: _549  and  _551
REMARK  206  A    between atoms: _551  and  _552
REMARK  207  A    between atoms: _551  and  _554
REMARK  208  A    between atoms: _557  and  _559
REMARK  209  A    between atoms: _559  and  _560
REMARK  210  A    between atoms: _563  and  _565
REMARK  211  A    between atoms: _565  and  _566
REMARK  212  A    between atoms: _565  and  _568
REMARK  213  A    between atoms: _568  and  _569
REMARK  214  A    between atoms: _572  and  _574
REMARK  215  A    between atoms: _574  and  _575
REMARK  216  A    between atoms: _574  and  _577
REMARK  217  A    between atoms: _577  and  _578
REMARK  218  A    between atoms: _578  and  _579
REMARK  219  A    between atoms: _582  and  _584
REMARK  220  A    between atoms: _584  and  _585
REMARK  221  A    between atoms: _584  and  _587
REMARK  222  A    between atoms: _587  and  _588
REMARK  223  A    between atoms: _588  and  _589
REMARK  224  A    between atoms: _589  and  _590
REMARK  225  A    between atoms: _590  and  _591
REMARK  226  A    between atoms: _595  and  _597
REMARK  227  A    between atoms: _597  and  _598
REMARK  228  A    between atoms: _597  and  _600
REMARK  229  A    between atoms: _600  and  _601
REMARK  230  A    between atoms: _607  and  _609
REMARK  231  A    between atoms: _609  and  _610
REMARK  232  A    between atoms: _609  and  _612
REMARK  233  A    between atoms: _612  and  _613
REMARK  234  A    between atoms: _619  and  _621
REMARK  235  A    between atoms: _621  and  _622
REMARK  236  A    between atoms: _624  and  _626
REMARK  237  A    between atoms: _626  and  _627
REMARK  238  A    between atoms: _626  and  _629
REMARK  239  A    between atoms: _632  and  _634
REMARK  240  A    between atoms: _634  and  _635
REMARK  241  A    between atoms: _634  and  _637
REMARK  242  A    between atoms: _637  and  _638
REMARK  243  A    between atoms: _638  and  _639
REMARK  244  A    between atoms: _639  and  _640
REMARK  245  A    between atoms: _640  and  _641
REMARK  246  A    between atoms: _645  and  _647
REMARK  247  A    between atoms: _647  and  _648
REMARK  248  A    between atoms: _647  and  _650
REMARK  249  A    between atoms: _650  and  _651
REMARK  250  A    between atoms: _657  and  _659
REMARK  251  A    between atoms: _659  and  _660
REMARK  252  A    between atoms: _659  and  _662
REMARK  253  A    between atoms: _662  and  _663
REMARK  254  A    between atoms: _668  and  _670
REMARK  255  A    between atoms: _670  and  _671
REMARK  256  A    between atoms: _670  and  _673
REMARK  257  A    between atoms: _673  and  _674
REMARK  258  A    between atoms: _679  and  _681
REMARK  259  A    between atoms: _681  and  _682
REMARK  260  A    between atoms: _681  and  _684
REMARK  261  A    between atoms: _687  and  _689
REMARK  262  A    between atoms: _689  and  _690
REMARK  263  A    between atoms: _689  and  _692
REMARK  264  A    between atoms: _692  and  _693
REMARK  265  A    between atoms: _697  and  _698
REMARK  266  A    between atoms: _703  and  _705
REMARK  267  A    between atoms: _705  and  _706
REMARK  268  A    between atoms: _705  and  _708
REMARK  269  A    between atoms: _708  and  _709
REMARK  270  A    between atoms: _714  and  _715
REMARK  271  A    between atoms: _717  and  _719
REMARK  272  A    between atoms: _719  and  _720
REMARK  273  A    between atoms: _719  and  _722
REMARK  274  A    between atoms: _722  and  _723
REMARK  275  A    between atoms: _723  and  _724
REMARK  276  A    between atoms: _724  and  _725
REMARK  277  A    between atoms: _734  and  _736
REMARK  278  A    between atoms: _736  and  _737
REMARK  279  A    between atoms: _736  and  _739
REMARK  280  A    between atoms: _739  and  _740
REMARK  281  A    between atoms: _745  and  _746
REMARK  282  A    between atoms: _748  and  _750
REMARK  283  A    between atoms: _750  and  _751
REMARK  284  A    between atoms: _750  and  _753
REMARK  285  A    between atoms: _753  and  _754
REMARK  286  A    between atoms: _760  and  _762
REMARK  287  A    between atoms: _762  and  _763
REMARK  288  A    between atoms: _762  and  _765
REMARK  289  A    between atoms: _765  and  _766
REMARK  290  A    between atoms: _768  and  _770
REMARK  291  A    between atoms: _770  and  _771
REMARK  292  A    between atoms: _770  and  _773
REMARK  293  A    between atoms: _773  and  _774
REMARK  294  A    between atoms: _780  and  _782
REMARK  295  A    between atoms: _782  and  _783
REMARK  296  A    between atoms: _782  and  _785
REMARK  297  A    between atoms: _785  and  _786
REMARK  298  A    between atoms: _786  and  _787
REMARK                            x       y       z     vdW  Elec       q    Type
REMARK                         _______ _______ _______ _____ _____    ______ ____
ROOT
ATOM      1  O   HOH     1       7.768 -10.092 -23.027  0.00  0.00    +0.000 OA
ENDROOT
TORSDOF 0
REMARK  Name = ../refined-set-2016/4ca6/4ca6_pocket.pdb
REMARK  298 active torsions:
REMARK  status: ('A' for Active; 'I' for Inactive)
REMARK    1  A    between atoms: _1  and  _3
REMARK    2  A    between atoms: _3  and  _4
REMARK    3  A    between atoms: _3  and  _6
REMARK    4  A    between atoms: _6  and  _7
REMARK    5  A    between atoms: _10  and  _12
REMARK    6  A    between atoms: _12  and  _13
REMARK    7  A    between atoms: _12  and  _15
REMARK    8  A    between atoms: _15  and  _16
REMARK    9  A    between atoms: _18  and  _20
REMARK   10  A    between atoms: _20  and  _21
REMARK   11  A    between atoms: _20  and  _23
REMARK   12  A    between atoms: _23  and  _24
REMARK   13  A    between atoms: _29  and  _30
REMARK   14  A    between atoms: _32  and  _34
REMARK   15  A    between atoms: _34  and  _35
REMARK   16  A    between atoms: _34  and  _37
REMARK   17  A    between atoms: _37  and  _38
REMARK   18  A    between atoms: _48  and  _50
REMARK   19  A    between atoms: _50  and  _51
REMARK   20  A    between atoms: _50  and  _53
REMARK   21  A    between atoms: _53  and  _54
REMARK   22  A    between atoms: _57  and  _59
REMARK   23  A    between atoms: _59  and  _60
REMARK   24  A    between atoms: _59  and  _62
REMARK   25  A    between atoms: _62  and  _63
REMARK   26  A    between atoms: _73  and  _75
REMARK   27  A    between atoms: _75  and  _76
REMARK   28  A    between atoms: _75  and  _78
REMARK   29  A    between atoms: _78  and  _79
REMARK   30  A    between atoms: _79  and  _80
REMARK   31  A    between atoms: _85  and  _87
REMARK   32  A    between atoms: _87  and  _88
REMARK   33  A    between atoms: _87  and  _90
REMARK   34  A    between atoms: _90  and  _91
REMARK   35  A    between atoms: _93  and  _95
REMARK   36  A    between atoms: _95  and  _96
REMARK   37  A    between atoms: _95  and  _98
REMARK   38  A    between atoms: _98  and  _99
REMARK   39  A    between atoms: _99  and  _100
REMARK   40  A    between atoms: _103  and  _105
REMARK   41  A    between atoms: _105  and  _106
REMARK   42  A    between atoms: _105  and  _108
REMARK   43  A    between atoms: _111  and  _113
REMARK   44  A    between atoms: _113  and  _114
REMARK   45  A    between atoms: _113  and  _116
REMARK   46  A    between atoms: _118  and  _120
REMARK   47  A    between atoms: _120  and  _121
REMARK   48  A    between atoms: _120  and  _123
REMARK   49  A    between atoms: _123  and  _124
REMARK   50  A    between atoms: _129  and  _131
REMARK   51  A    between atoms: _131  and  _132
REMARK   52  A    between atoms: _135  and  _137
REMARK   53  A    between atoms: _137  and  _138
REMARK   54  A    between atoms: _137  and  _140
REMARK   55  A    between atoms: _140  and  _141
REMARK   56  A    between atoms: _143  and  _145
REMARK   57  A    between atoms: _145  and  _146
REMARK   58  A    between atoms: _149  and  _151
REMARK   59  A    between atoms: _151  and  _152
REMARK   60  A    between atoms: _151  and  _154
REMARK   61  A    between atoms: _154  and  _155
REMARK   62  A    between atoms: _165  and  _167
REMARK   63  A    between atoms: _167  and  _168
REMARK   64  A    between atoms: _167  and  _170
REMARK   65  A    between atoms: _170  and  _171
REMARK   66  A    between atoms: _174  and  _176
REMARK   67  A    between atoms: _176  and  _177
REMARK   68  A    between atoms: _176  and  _179
REMARK   69  A    between atoms: _179  and  _180
REMARK   70  A    between atoms: _185  and  _186
REMARK   71  A    between atoms: _188  and  _190
REMARK   72  A    between atoms: _190  and  _191
REMARK   73  A    between atoms: _190  and  _193
REMARK   74  A    between atoms: _193  and  _194
REMARK   75  A    between atoms: _194  and  _195
REMARK   76  A    between atoms: _195  and  _196
REMARK   77  A    between atoms: _205  and  _207
REMARK   78  A    between atoms: _207  and  _208
REMARK   79  A    between atoms: _207  and  _210
REMARK   80  A    between atoms: _210  and  _211
REMARK   81  A    between atoms: _214  and  _216
REMARK   82  A    between atoms: _216  and  _217
REMARK   83  A    between atoms: _216  and  _219
REMARK   84  A    between atoms: _219  and  _220
REMARK   85  A    between atoms: _220  and  _221
REMARK   86  A    between atoms: _221  and  _222
REMARK   87  A    between atoms: _222  and  _223
REMARK   88  A    between atoms: _227  and  _229
REMARK   89  A    between atoms: _229  and  _230
REMARK   90  A    between atoms: _229  and  _232
REMARK   91  A    between atoms: _232  and  _233
REMARK   92  A    between atoms: _233  and  _234
REMARK   93  A    between atoms: _239  and  _241
REMARK   94  A    between atoms: _241  and  _242
REMARK   95  A    between atoms: _241  and  _244
REMARK   96  A    between atoms: _244  and  _245
REMARK   97  A    between atoms: _245  and  _246
REMARK   98  A    between atoms: _246  and  _247
REMARK   99  A    between atoms: _256  and  _258
REMARK  100  A    between atoms: _258  and  _259
REMARK  101  A    between atoms: _258  and  _261
REMARK  102  A    between atoms: _261  and  _262
REMARK  103  A    between atoms: _262  and  _263
REMARK  104  A    between atoms: _265  and  _267
REMARK  105  A    between atoms: _267  and  _268
REMARK  106  A    between atoms: _267  and  _270
REMARK  107  A    between atoms: _270  and  _271
REMARK  108  A    between atoms: _274  and  _276
REMARK  109  A    between atoms: _276  and  _277
REMARK  110  A    between atoms: _276  and  _279
REMARK  111  A    between atoms: _279  and  _280
REMARK  112  A    between atoms: _280  and  _281
REMARK  113  A    between atoms: _286  and  _288
REMARK  114  A    between atoms: _288  and  _289
REMARK  115  A    between atoms: _288  and  _291
REMARK  116  A    between atoms: _291  and  _292
REMARK  117  A    between atoms: _295  and  _297
REMARK  118  A    between atoms: _297  and  _298
REMARK  119  A    between atoms: _297  and  _300
REMARK  120  A    between atoms: _300  and  _301
REMARK  121  A    between atoms: _303  and  _305
REMARK  122  A    between atoms: _305  and  _306
REMARK  123  A    between atoms: _305  and  _308
REMARK  124  A    between atoms: _308  and  _309
REMARK  125  A    between atoms: _312  and  _314
REMARK  126  A    between atoms: _314  and  _315
REMARK  127  A    between atoms: _314  and  _317
REMARK  128  A    between atoms: _320  and  _322
REMARK  129  A    between atoms: _322  and  _323
REMARK  130  A    between atoms: _322  and  _325
REMARK  131  A    between atoms: _325  and  _326
REMARK  132  A    between atoms: _331  and  _333
REMARK  133  A    between atoms: _344  and  _347
REMARK  134  A    between atoms: _347  and  _348
REMARK  135  A    between atoms: _348  and  _349
REMARK  136  A    between atoms: _354  and  _357
REMARK  137  A    between atoms: _357  and  _358
REMARK  138  A    between atoms: _358  and  _359
REMARK  139  A    between atoms: _368  and  _369
REMARK  140  A    between atoms: _377  and  _379
REMARK  141  A    between atoms: _379  and  _380
REMARK  142  A    between atoms: _379  and  _382
REMARK  143  A    between atoms: _382  and  _383
REMARK  144  A    between atoms: _386  and  _388
REMARK  145  A    between atoms: _388  and  _389
REMARK  146  A    between atoms: _388  and  _391
REMARK  147  A    between atoms: _391  and  _392
REMARK  148  A    between atoms: _397  and  _398
REMARK  149  A    between atoms: _400  and  _402
REMARK  150  A    between atoms: _402  and  _403
REMARK  151  A    between atoms: _402  and  _405
REMARK  152  A    between atoms: _405  and  _406
REMARK  153  A    between atoms: _411  and  _412
REMARK  154  A    between atoms: _414  and  _416
REMARK  155  A    between atoms: _416  and  _417
REMARK  156  A    between atoms: _416  and  _419
REMARK  157  A    between atoms: _419  and  _420
REMARK  158  A    between atoms: _425  and  _426
REMARK  159  A    between atoms: _428  and  _430
REMARK  160  A    between atoms: _430  and  _431
REMARK  161  A    between atoms: _430  and  _433
REMARK  162  A    between atoms: _433  and  _434
REMARK  163  A    between atoms: _434  and  _435
REMARK  164  A    between atoms: _435  and  _436
REMARK  165  A    between atoms: _445  and  _447
REMARK  166  A    between atoms: _447  and  _448
REMARK  167  A    between atoms: _447  and  _450
REMARK  168  A    between atoms: _450  and  _451
REMARK  169  A    between atoms: _451  and  _452
REMARK  170  A    between atoms: _452  and  _453
REMARK  171  A    between atoms: _462  and  _464
REMARK  172  A    between atoms: _464  and  _465
REMARK  173  A    between atoms: _467  and  _469
REMARK  174  A    between atoms: _469  and  _470
REMARK  175  A    between atoms: _473  and  _475
REMARK  176  A    between atoms: _475  and  _476
REMARK  177  A    between atoms: _475  and  _478
REMARK  178  A    between atoms: _478  and  _479
REMARK  179  A    between atoms: _485  and  _486
REMARK  180  A    between atoms: _491  and  _493
REMARK  181  A    between atoms: _493  and  _494
REMARK  182  A    between atoms: _496  and  _498
REMARK  183  A    between atoms: _498  and  _499
REMARK  184  A    between atoms: _498  and  _501
REMARK  185  A    between atoms: _501  and  _502
REMARK  186  A    between atoms: _508  and  _510
REMARK  187  A    between atoms: _510  and  _511
REMARK  188  A    between atoms: _510  and  _513
REMARK  189  A    between atoms: _513  and  _514
REMARK  190  A    between atoms: _519  and  _521
REMARK  191  A    between atoms: _521  and  _522
REMARK  192  A    between atoms: _521  and  _524
REMARK  193  A    between atoms: _524  and  _525
REMARK  194  A    between atoms: _525  and  _526
REMARK  195  A    between atoms: _526  and  _527
REMARK  196  A    between atoms: _527  and  ZN_792
REMARK  197  A    between atoms: _529  and  _531
REMARK  198  A    between atoms: _531  and  _532
REMARK  199  A    between atoms: _535  and  _537
REMARK  200  A    between atoms: _537  and  _538
REMARK  201  A    between atoms: _540  and  _542
REMARK  202  A    between atoms: _542  and  _543
REMARK  203  A    between atoms: _542  and  _545
REMARK  204  A    between atoms: _545  and  _546
REMARK  205  A    between atoms: _549  and  _551
REMARK  206  A    between atoms: _551  and  _552
REMARK  207  A    between atoms: _551  and  _554
REMARK  208  A    between atoms: _557  and  _559
REMARK  209  A    between atoms: _559  and  _560
REMARK  210  A    between atoms: _563  and  _565
REMARK  211  A    between atoms: _565  and  _566
REMARK  212  A    between atoms: _565  and  _568
REMARK  213  A    between atoms: _568  and  _569
REMARK  214  A    between atoms: _572  and  _574
REMARK  215  A    between atoms: _574  and  _575
REMARK  216  A    between atoms: _574  and  _577
REMARK  217  A    between atoms: _577  and  _578
REMARK  218  A    between atoms: _578  and  _579
REMARK  219  A    between atoms: _582  and  _584
REMARK  220  A    between atoms: _584  and  _585
REMARK  221  A    between atoms: _584  and  _587
REMARK  222  A    between atoms: _587  and  _588
REMARK  223  A    between atoms: _588  and  _589
REMARK  224  A    between atoms: _589  and  _590
REMARK  225  A    between atoms: _590  and  _591
REMARK  226  A    between atoms: _595  and  _597
REMARK  227  A    between atoms: _597  and  _598
REMARK  228  A    between atoms: _597  and  _600
REMARK  229  A    between atoms: _600  and  _601
REMARK  230  A    between atoms: _607  and  _609
REMARK  231  A    between atoms: _609  and  _610
REMARK  232  A    between atoms: _609  and  _612
REMARK  233  A    between atoms: _612  and  _613
REMARK  234  A    between atoms: _619  and  _621
REMARK  235  A    between atoms: _621  and  _622
REMARK  236  A    between atoms: _624  and  _626
REMARK  237  A    between atoms: _626  and  _627
REMARK  238  A    between atoms: _626  and  _629
REMARK  239  A    between atoms: _632  and  _634
REMARK  240  A    between atoms: _634  and  _635
REMARK  241  A    between atoms: _634  and  _637
REMARK  242  A    between atoms: _637  and  _638
REMARK  243  A    between atoms: _638  and  _639
REMARK  244  A    between atoms: _639  and  _640
REMARK  245  A    between atoms: _640  and  _641
REMARK  246  A    between atoms: _645  and  _647
REMARK  247  A    between atoms: _647  and  _648
REMARK  248  A    between atoms: _647  and  _650
REMARK  249  A    between atoms: _650  and  _651
REMARK  250  A    between atoms: _657  and  _659
REMARK  251  A    between atoms: _659  and  _660
REMARK  252  A    between atoms: _659  and  _662
REMARK  253  A    between atoms: _662  and  _663
REMARK  254  A    between atoms: _668  and  _670
REMARK  255  A    between atoms: _670  and  _671
REMARK  256  A    between atoms: _670  and  _673
REMARK  257  A    between atoms: _673  and  _674
REMARK  258  A    between atoms: _679  and  _681
REMARK  259  A    between atoms: _681  and  _682
REMARK  260  A    between atoms: _681  and  _684
REMARK  261  A    between atoms: _687  and  _689
REMARK  262  A    between atoms: _689  and  _690
REMARK  263  A    between atoms: _689  and  _692
REMARK  264  A    between atoms: _692  and  _693
REMARK  265  A    between atoms: _697  and  _698
REMARK  266  A    between atoms: _703  and  _705
REMARK  267  A    between atoms: _705  and  _706
REMARK  268  A    between atoms: _705  and  _708
REMARK  269  A    between atoms: _708  and  _709
REMARK  270  A    between atoms: _714  and  _715
REMARK  271  A    between atoms: _717  and  _719
REMARK  272  A    between atoms: _719  and  _720
REMARK  273  A    between atoms: _719  and  _722
REMARK  274  A    between atoms: _722  and  _723
REMARK  275  A    between atoms: _723  and  _724
REMARK  276  A    between atoms: _724  and  _725
REMARK  277  A    between atoms: _734  and  _736
REMARK  278  A    between atoms: _736  and  _737
REMARK  279  A    between atoms: _736  and  _739
REMARK  280  A    between atoms: _739  and  _740
REMARK  281  A    between atoms: _745  and  _746
REMARK  282  A    between atoms: _748  and  _750
REMARK  283  A    between atoms: _750  and  _751
REMARK  284  A    between atoms: _750  and  _753
REMARK  285  A    between atoms: _753  and  _754
REMARK  286  A    between atoms: _760  and  _762
REMARK  287  A    between atoms: _762  and  _763
REMARK  288  A    between atoms: _762  and  _765
REMARK  289  A    between atoms: _765  and  _766
REMARK  290  A    between atoms: _768  and  _770
REMARK  291  A    between atoms: _770  and  _771
REMARK  292  A    between atoms: _770  and  _773
REMARK  293  A    between atoms: _773  and  _774
REMARK  294  A    between atoms: _780  and  _782
REMARK  295  A    between atoms: _782  and  _783
REMARK  296  A    between atoms: _782  and  _785
REMARK  297  A    between atoms: _785  and  _786
REMARK  298  A    between atoms: _786  and  _787
REMARK                            x       y       z     vdW  Elec       q    Type
REMARK                         _______ _______ _______ _____ _____    ______ ____
ROOT
ATOM      1  O   HOH     1       8.320  -9.794 -25.762  0.00  0.00    +0.000 OA
ENDROOT
TORSDOF 0
REMARK  Name = ../refined-set-2016/4ca6/4ca6_pocket.pdb
REMARK  298 active torsions:
REMARK  status: ('A' for Active; 'I' for Inactive)
REMARK    1  A    between atoms: _1  and  _3
REMARK    2  A    between atoms: _3  and  _4
REMARK    3  A    between atoms: _3  and  _6
REMARK    4  A    between atoms: _6  and  _7
REMARK    5  A    between atoms: _10  and  _12
REMARK    6  A    between atoms: _12  and  _13
REMARK    7  A    between atoms: _12  and  _15
REMARK    8  A    between atoms: _15  and  _16
REMARK    9  A    between atoms: _18  and  _20
REMARK   10  A    between atoms: _20  and  _21
REMARK   11  A    between atoms: _20  and  _23
REMARK   12  A    between atoms: _23  and  _24
REMARK   13  A    between atoms: _29  and  _30
REMARK   14  A    between atoms: _32  and  _34
REMARK   15  A    between atoms: _34  and  _35
REMARK   16  A    between atoms: _34  and  _37
REMARK   17  A    between atoms: _37  and  _38
REMARK   18  A    between atoms: _48  and  _50
REMARK   19  A    between atoms: _50  and  _51
REMARK   20  A    between atoms: _50  and  _53
REMARK   21  A    between atoms: _53  and  _54
REMARK   22  A    between atoms: _57  and  _59
REMARK   23  A    between atoms: _59  and  _60
REMARK   24  A    between atoms: _59  and  _62
REMARK   25  A    between atoms: _62  and  _63
REMARK   26  A    between atoms: _73  and  _75
REMARK   27  A    between atoms: _75  and  _76
REMARK   28  A    between atoms: _75  and  _78
REMARK   29  A    between atoms: _78  and  _79
REMARK   30  A    between atoms: _79  and  _80
REMARK   31  A    between atoms: _85  and  _87
REMARK   32  A    between atoms: _87  and  _88
REMARK   33  A    between atoms: _87  and  _90
REMARK   34  A    between atoms: _90  and  _91
REMARK   35  A    between atoms: _93  and  _95
REMARK   36  A    between atoms: _95  and  _96
REMARK   37  A    between atoms: _95  and  _98
REMARK   38  A    between atoms: _98  and  _99
REMARK   39  A    between atoms: _99  and  _100
REMARK   40  A    between atoms: _103  and  _105
REMARK   41  A    between atoms: _105  and  _106
REMARK   42  A    between atoms: _105  and  _108
REMARK   43  A    between atoms: _111  and  _113
REMARK   44  A    between atoms: _113  and  _114
REMARK   45  A    between atoms: _113  and  _116
REMARK   46  A    between atoms: _118  and  _120
REMARK   47  A    between atoms: _120  and  _121
REMARK   48  A    between atoms: _120  and  _123
REMARK   49  A    between atoms: _123  and  _124
REMARK   50  A    between atoms: _129  and  _131
REMARK   51  A    between atoms: _131  and  _132
REMARK   52  A    between atoms: _135  and  _137
REMARK   53  A    between atoms: _137  and  _138
REMARK   54  A    between atoms: _137  and  _140
REMARK   55  A    between atoms: _140  and  _141
REMARK   56  A    between atoms: _143  and  _145
REMARK   57  A    between atoms: _145  and  _146
REMARK   58  A    between atoms: _149  and  _151
REMARK   59  A    between atoms: _151  and  _152
REMARK   60  A    between atoms: _151  and  _154
REMARK   61  A    between atoms: _154  and  _155
REMARK   62  A    between atoms: _165  and  _167
REMARK   63  A    between atoms: _167  and  _168
REMARK   64  A    between atoms: _167  and  _170
REMARK   65  A    between atoms: _170  and  _171
REMARK   66  A    between atoms: _174  and  _176
REMARK   67  A    between atoms: _176  and  _177
REMARK   68  A    between atoms: _176  and  _179
REMARK   69  A    between atoms: _179  and  _180
REMARK   70  A    between atoms: _185  and  _186
REMARK   71  A    between atoms: _188  and  _190
REMARK   72  A    between atoms: _190  and  _191
REMARK   73  A    between atoms: _190  and  _193
REMARK   74  A    between atoms: _193  and  _194
REMARK   75  A    between atoms: _194  and  _195
REMARK   76  A    between atoms: _195  and  _196
REMARK   77  A    between atoms: _205  and  _207
REMARK   78  A    between atoms: _207  and  _208
REMARK   79  A    between atoms: _207  and  _210
REMARK   80  A    between atoms: _210  and  _211
REMARK   81  A    between atoms: _214  and  _216
REMARK   82  A    between atoms: _216  and  _217
REMARK   83  A    between atoms: _216  and  _219
REMARK   84  A    between atoms: _219  and  _220
REMARK   85  A    between atoms: _220  and  _221
REMARK   86  A    between atoms: _221  and  _222
REMARK   87  A    between atoms: _222  and  _223
REMARK   88  A    between atoms: _227  and  _229
REMARK   89  A    between atoms: _229  and  _230
REMARK   90  A    between atoms: _229  and  _232
REMARK   91  A    between atoms: _232  and  _233
REMARK   92  A    between atoms: _233  and  _234
REMARK   93  A    between atoms: _239  and  _241
REMARK   94  A    between atoms: _241  and  _242
REMARK   95  A    between atoms: _241  and  _244
REMARK   96  A    between atoms: _244  and  _245
REMARK   97  A    between atoms: _245  and  _246
REMARK   98  A    between atoms: _246  and  _247
REMARK   99  A    between atoms: _256  and  _258
REMARK  100  A    between atoms: _258  and  _259
REMARK  101  A    between atoms: _258  and  _261
REMARK  102  A    between atoms: _261  and  _262
REMARK  103  A    between atoms: _262  and  _263
REMARK  104  A    between atoms: _265  and  _267
REMARK  105  A    between atoms: _267  and  _268
REMARK  106  A    between atoms: _267  and  _270
REMARK  107  A    between atoms: _270  and  _271
REMARK  108  A    between atoms: _274  and  _276
REMARK  109  A    between atoms: _276  and  _277
REMARK  110  A    between atoms: _276  and  _279
REMARK  111  A    between atoms: _279  and  _280
REMARK  112  A    between atoms: _280  and  _281
REMARK  113  A    between atoms: _286  and  _288
REMARK  114  A    between atoms: _288  and  _289
REMARK  115  A    between atoms: _288  and  _291
REMARK  116  A    between atoms: _291  and  _292
REMARK  117  A    between atoms: _295  and  _297
REMARK  118  A    between atoms: _297  and  _298
REMARK  119  A    between atoms: _297  and  _300
REMARK  120  A    between atoms: _300  and  _301
REMARK  121  A    between atoms: _303  and  _305
REMARK  122  A    between atoms: _305  and  _306
REMARK  123  A    between atoms: _305  and  _308
REMARK  124  A    between atoms: _308  and  _309
REMARK  125  A    between atoms: _312  and  _314
REMARK  126  A    between atoms: _314  and  _315
REMARK  127  A    between atoms: _314  and  _317
REMARK  128  A    between atoms: _320  and  _322
REMARK  129  A    between atoms: _322  and  _323
REMARK  130  A    between atoms: _322  and  _325
REMARK  131  A    between atoms: _325  and  _326
REMARK  132  A    between atoms: _331  and  _333
REMARK  133  A    between atoms: _344  and  _347
REMARK  134  A    between atoms: _347  and  _348
REMARK  135  A    between atoms: _348  and  _349
REMARK  136  A    between atoms: _354  and  _357
REMARK  137  A    between atoms: _357  and  _358
REMARK  138  A    between atoms: _358  and  _359
REMARK  139  A    between atoms: _368  and  _369
REMARK  140  A    between atoms: _377  and  _379
REMARK  141  A    between atoms: _379  and  _380
REMARK  142  A    between atoms: _379  and  _382
REMARK  143  A    between atoms: _382  and  _383
REMARK  144  A    between atoms: _386  and  _388
REMARK  145  A    between atoms: _388  and  _389
REMARK  146  A    between atoms: _388  and  _391
REMARK  147  A    between atoms: _391  and  _392
REMARK  148  A    between atoms: _397  and  _398
REMARK  149  A    between atoms: _400  and  _402
REMARK  150  A    between atoms: _402  and  _403
REMARK  151  A    between atoms: _402  and  _405
REMARK  152  A    between atoms: _405  and  _406
REMARK  153  A    between atoms: _411  and  _412
REMARK  154  A    between atoms: _414  and  _416
REMARK  155  A    between atoms: _416  and  _417
REMARK  156  A    between atoms: _416  and  _419
REMARK  157  A    between atoms: _419  and  _420
REMARK  158  A    between atoms: _425  and  _426
REMARK  159  A    between atoms: _428  and  _430
REMARK  160  A    between atoms: _430  and  _431
REMARK  161  A    between atoms: _430  and  _433
REMARK  162  A    between atoms: _433  and  _434
REMARK  163  A    between atoms: _434  and  _435
REMARK  164  A    between atoms: _435  and  _436
REMARK  165  A    between atoms: _445  and  _447
REMARK  166  A    between atoms: _447  and  _448
REMARK  167  A    between atoms: _447  and  _450
REMARK  168  A    between atoms: _450  and  _451
REMARK  169  A    between atoms: _451  and  _452
REMARK  170  A    between atoms: _452  and  _453
REMARK  171  A    between atoms: _462  and  _464
REMARK  172  A    between atoms: _464  and  _465
REMARK  173  A    between atoms: _467  and  _469
REMARK  174  A    between atoms: _469  and  _470
REMARK  175  A    between atoms: _473  and  _475
REMARK  176  A    between atoms: _475  and  _476
REMARK  177  A    between atoms: _475  and  _478
REMARK  178  A    between atoms: _478  and  _479
REMARK  179  A    between atoms: _485  and  _486
REMARK  180  A    between atoms: _491  and  _493
REMARK  181  A    between atoms: _493  and  _494
REMARK  182  A    between atoms: _496  and  _498
REMARK  183  A    between atoms: _498  and  _499
REMARK  184  A    between atoms: _498  and  _501
REMARK  185  A    between atoms: _501  and  _502
REMARK  186  A    between atoms: _508  and  _510
REMARK  187  A    between atoms: _510  and  _511
REMARK  188  A    between atoms: _510  and  _513
REMARK  189  A    between atoms: _513  and  _514
REMARK  190  A    between atoms: _519  and  _521
REMARK  191  A    between atoms: _521  and  _522
REMARK  192  A    between atoms: _521  and  _524
REMARK  193  A    between atoms: _524  and  _525
REMARK  194  A    between atoms: _525  and  _526
REMARK  195  A    between atoms: _526  and  _527
REMARK  196  A    between atoms: _527  and  ZN_792
REMARK  197  A    between atoms: _529  and  _531
REMARK  198  A    between atoms: _531  and  _532
REMARK  199  A    between atoms: _535  and  _537
REMARK  200  A    between atoms: _537  and  _538
REMARK  201  A    between atoms: _540  and  _542
REMARK  202  A    between atoms: _542  and  _543
REMARK  203  A    between atoms: _542  and  _545
REMARK  204  A    between atoms: _545  and  _546
REMARK  205  A    between atoms: _549  and  _551
REMARK  206  A    between atoms: _551  and  _552
REMARK  207  A    between atoms: _551  and  _554
REMARK  208  A    between atoms: _557  and  _559
REMARK  209  A    between atoms: _559  and  _560
REMARK  210  A    between atoms: _563  and  _565
REMARK  211  A    between atoms: _565  and  _566
REMARK  212  A    between atoms: _565  and  _568
REMARK  213  A    between atoms: _568  and  _569
REMARK  214  A    between atoms: _572  and  _574
REMARK  215  A    between atoms: _574  and  _575
REMARK  216  A    between atoms: _574  and  _577
REMARK  217  A    between atoms: _577  and  _578
REMARK  218  A    between atoms: _578  and  _579
REMARK  219  A    between atoms: _582  and  _584
REMARK  220  A    between atoms: _584  and  _585
REMARK  221  A    between atoms: _584  and  _587
REMARK  222  A    between atoms: _587  and  _588
REMARK  223  A    between atoms: _588  and  _589
REMARK  224  A    between atoms: _589  and  _590
REMARK  225  A    between atoms: _590  and  _591
REMARK  226  A    between atoms: _595  and  _597
REMARK  227  A    between atoms: _597  and  _598
REMARK  228  A    between atoms: _597  and  _600
REMARK  229  A    between atoms: _600  and  _601
REMARK  230  A    between atoms: _607  and  _609
REMARK  231  A    between atoms: _609  and  _610
REMARK  232  A    between atoms: _609  and  _612
REMARK  233  A    between atoms: _612  and  _613
REMARK  234  A    between atoms: _619  and  _621
REMARK  235  A    between atoms: _621  and  _622
REMARK  236  A    between atoms: _624  and  _626
REMARK  237  A    between atoms: _626  and  _627
REMARK  238  A    between atoms: _626  and  _629
REMARK  239  A    between atoms: _632  and  _634
REMARK  240  A    between atoms: _634  and  _635
REMARK  241  A    between atoms: _634  and  _637
REMARK  242  A    between atoms: _637  and  _638
REMARK  243  A    between atoms: _638  and  _639
REMARK  244  A    between atoms: _639  and  _640
REMARK  245  A    between atoms: _640  and  _641
REMARK  246  A    between atoms: _645  and  _647
REMARK  247  A    between atoms: _647  and  _648
REMARK  248  A    between atoms: _647  and  _650
REMARK  249  A    between atoms: _650  and  _651
REMARK  250  A    between atoms: _657  and  _659
REMARK  251  A    between atoms: _659  and  _660
REMARK  252  A    between atoms: _659  and  _662
REMARK  253  A    between atoms: _662  and  _663
REMARK  254  A    between atoms: _668  and  _670
REMARK  255  A    between atoms: _670  and  _671
REMARK  256  A    between atoms: _670  and  _673
REMARK  257  A    between atoms: _673  and  _674
REMARK  258  A    between atoms: _679  and  _681
REMARK  259  A    between atoms: _681  and  _682
REMARK  260  A    between atoms: _681  and  _684
REMARK  261  A    between atoms: _687  and  _689
REMARK  262  A    between atoms: _689  and  _690
REMARK  263  A    between atoms: _689  and  _692
REMARK  264  A    between atoms: _692  and  _693
REMARK  265  A    between atoms: _697  and  _698
REMARK  266  A    between atoms: _703  and  _705
REMARK  267  A    between atoms: _705  and  _706
REMARK  268  A    between atoms: _705  and  _708
REMARK  269  A    between atoms: _708  and  _709
REMARK  270  A    between atoms: _714  and  _715
REMARK  271  A    between atoms: _717  and  _719
REMARK  272  A    between atoms: _719  and  _720
REMARK  273  A    between atoms: _719  and  _722
REMARK  274  A    between atoms: _722  and  _723
REMARK  275  A    between atoms: _723  and  _724
REMARK  276  A    between atoms: _724  and  _725
REMARK  277  A    between atoms: _734  and  _736
REMARK  278  A    between atoms: _736  and  _737
REMARK  279  A    between atoms: _736  and  _739
REMARK  280  A    between atoms: _739  and  _740
REMARK  281  A    between atoms: _745  and  _746
REMARK  282  A    between atoms: _748  and  _750
REMARK  283  A    between atoms: _750  and  _751
REMARK  284  A    between atoms: _750  and  _753
REMARK  285  A    between atoms: _753  and  _754
REMARK  286  A    between atoms: _760  and  _762
REMARK  287  A    between atoms: _762  and  _763
REMARK  288  A    between atoms: _762  and  _765
REMARK  289  A    between atoms: _765  and  _766
REMARK  290  A    between atoms: _768  and  _770
REMARK  291  A    between atoms: _770  and  _771
REMARK  292  A    between atoms: _770  and  _773
REMARK  293  A    between atoms: _773  and  _774
REMARK  294  A    between atoms: _780  and  _782
REMARK  295  A    between atoms: _782  and  _783
REMARK  296  A    between atoms: _782  and  _785
REMARK  297  A    between atoms: _785  and  _786
REMARK  298  A    between atoms: _786  and  _787
REMARK                            x       y       z     vdW  Elec       q    Type
REMARK                         _______ _______ _______ _____ _____    ______ ____
ROOT
ATOM      1  O   HOH     1       8.823 -13.130 -19.897  0.00  0.00    +0.000 OA
ENDROOT
TORSDOF 0
REMARK  Name = ../refined-set-2016/4ca6/4ca6_pocket.pdb
REMARK  298 active torsions:
REMARK  status: ('A' for Active; 'I' for Inactive)
REMARK    1  A    between atoms: _1  and  _3
REMARK    2  A    between atoms: _3  and  _4
REMARK    3  A    between atoms: _3  and  _6
REMARK    4  A    between atoms: _6  and  _7
REMARK    5  A    between atoms: _10  and  _12
REMARK    6  A    between atoms: _12  and  _13
REMARK    7  A    between atoms: _12  and  _15
REMARK    8  A    between atoms: _15  and  _16
REMARK    9  A    between atoms: _18  and  _20
REMARK   10  A    between atoms: _20  and  _21
REMARK   11  A    between atoms: _20  and  _23
REMARK   12  A    between atoms: _23  and  _24
REMARK   13  A    between atoms: _29  and  _30
REMARK   14  A    between atoms: _32  and  _34
REMARK   15  A    between atoms: _34  and  _35
REMARK   16  A    between atoms: _34  and  _37
REMARK   17  A    between atoms: _37  and  _38
REMARK   18  A    between atoms: _48  and  _50
REMARK   19  A    between atoms: _50  and  _51
REMARK   20  A    between atoms: _50  and  _53
REMARK   21  A    between atoms: _53  and  _54
REMARK   22  A    between atoms: _57  and  _59
REMARK   23  A    between atoms: _59  and  _60
REMARK   24  A    between atoms: _59  and  _62
REMARK   25  A    between atoms: _62  and  _63
REMARK   26  A    between atoms: _73  and  _75
REMARK   27  A    between atoms: _75  and  _76
REMARK   28  A    between atoms: _75  and  _78
REMARK   29  A    between atoms: _78  and  _79
REMARK   30  A    between atoms: _79  and  _80
REMARK   31  A    between atoms: _85  and  _87
REMARK   32  A    between atoms: _87  and  _88
REMARK   33  A    between atoms: _87  and  _90
REMARK   34  A    between atoms: _90  and  _91
REMARK   35  A    between atoms: _93  and  _95
REMARK   36  A    between atoms: _95  and  _96
REMARK   37  A    between atoms: _95  and  _98
REMARK   38  A    between atoms: _98  and  _99
REMARK   39  A    between atoms: _99  and  _100
REMARK   40  A    between atoms: _103  and  _105
REMARK   41  A    between atoms: _105  and  _106
REMARK   42  A    between atoms: _105  and  _108
REMARK   43  A    between atoms: _111  and  _113
REMARK   44  A    between atoms: _113  and  _114
REMARK   45  A    between atoms: _113  and  _116
REMARK   46  A    between atoms: _118  and  _120
REMARK   47  A    between atoms: _120  and  _121
REMARK   48  A    between atoms: _120  and  _123
REMARK   49  A    between atoms: _123  and  _124
REMARK   50  A    between atoms: _129  and  _131
REMARK   51  A    between atoms: _131  and  _132
REMARK   52  A    between atoms: _135  and  _137
REMARK   53  A    between atoms: _137  and  _138
REMARK   54  A    between atoms: _137  and  _140
REMARK   55  A    between atoms: _140  and  _141
REMARK   56  A    between atoms: _143  and  _145
REMARK   57  A    between atoms: _145  and  _146
REMARK   58  A    between atoms: _149  and  _151
REMARK   59  A    between atoms: _151  and  _152
REMARK   60  A    between atoms: _151  and  _154
REMARK   61  A    between atoms: _154  and  _155
REMARK   62  A    between atoms: _165  and  _167
REMARK   63  A    between atoms: _167  and  _168
REMARK   64  A    between atoms: _167  and  _170
REMARK   65  A    between atoms: _170  and  _171
REMARK   66  A    between atoms: _174  and  _176
REMARK   67  A    between atoms: _176  and  _177
REMARK   68  A    between atoms: _176  and  _179
REMARK   69  A    between atoms: _179  and  _180
REMARK   70  A    between atoms: _185  and  _186
REMARK   71  A    between atoms: _188  and  _190
REMARK   72  A    between atoms: _190  and  _191
REMARK   73  A    between atoms: _190  and  _193
REMARK   74  A    between atoms: _193  and  _194
REMARK   75  A    between atoms: _194  and  _195
REMARK   76  A    between atoms: _195  and  _196
REMARK   77  A    between atoms: _205  and  _207
REMARK   78  A    between atoms: _207  and  _208
REMARK   79  A    between atoms: _207  and  _210
REMARK   80  A    between atoms: _210  and  _211
REMARK   81  A    between atoms: _214  and  _216
REMARK   82  A    between atoms: _216  and  _217
REMARK   83  A    between atoms: _216  and  _219
REMARK   84  A    between atoms: _219  and  _220
REMARK   85  A    between atoms: _220  and  _221
REMARK   86  A    between atoms: _221  and  _222
REMARK   87  A    between atoms: _222  and  _223
REMARK   88  A    between atoms: _227  and  _229
REMARK   89  A    between atoms: _229  and  _230
REMARK   90  A    between atoms: _229  and  _232
REMARK   91  A    between atoms: _232  and  _233
REMARK   92  A    between atoms: _233  and  _234
REMARK   93  A    between atoms: _239  and  _241
REMARK   94  A    between atoms: _241  and  _242
REMARK   95  A    between atoms: _241  and  _244
REMARK   96  A    between atoms: _244  and  _245
REMARK   97  A    between atoms: _245  and  _246
REMARK   98  A    between atoms: _246  and  _247
REMARK   99  A    between atoms: _256  and  _258
REMARK  100  A    between atoms: _258  and  _259
REMARK  101  A    between atoms: _258  and  _261
REMARK  102  A    between atoms: _261  and  _262
REMARK  103  A    between atoms: _262  and  _263
REMARK  104  A    between atoms: _265  and  _267
REMARK  105  A    between atoms: _267  and  _268
REMARK  106  A    between atoms: _267  and  _270
REMARK  107  A    between atoms: _270  and  _271
REMARK  108  A    between atoms: _274  and  _276
REMARK  109  A    between atoms: _276  and  _277
REMARK  110  A    between atoms: _276  and  _279
REMARK  111  A    between atoms: _279  and  _280
REMARK  112  A    between atoms: _280  and  _281
REMARK  113  A    between atoms: _286  and  _288
REMARK  114  A    between atoms: _288  and  _289
REMARK  115  A    between atoms: _288  and  _291
REMARK  116  A    between atoms: _291  and  _292
REMARK  117  A    between atoms: _295  and  _297
REMARK  118  A    between atoms: _297  and  _298
REMARK  119  A    between atoms: _297  and  _300
REMARK  120  A    between atoms: _300  and  _301
REMARK  121  A    between atoms: _303  and  _305
REMARK  122  A    between atoms: _305  and  _306
REMARK  123  A    between atoms: _305  and  _308
REMARK  124  A    between atoms: _308  and  _309
REMARK  125  A    between atoms: _312  and  _314
REMARK  126  A    between atoms: _314  and  _315
REMARK  127  A    between atoms: _314  and  _317
REMARK  128  A    between atoms: _320  and  _322
REMARK  129  A    between atoms: _322  and  _323
REMARK  130  A    between atoms: _322  and  _325
REMARK  131  A    between atoms: _325  and  _326
REMARK  132  A    between atoms: _331  and  _333
REMARK  133  A    between atoms: _344  and  _347
REMARK  134  A    between atoms: _347  and  _348
REMARK  135  A    between atoms: _348  and  _349
REMARK  136  A    between atoms: _354  and  _357
REMARK  137  A    between atoms: _357  and  _358
REMARK  138  A    between atoms: _358  and  _359
REMARK  139  A    between atoms: _368  and  _369
REMARK  140  A    between atoms: _377  and  _379
REMARK  141  A    between atoms: _379  and  _380
REMARK  142  A    between atoms: _379  and  _382
REMARK  143  A    between atoms: _382  and  _383
REMARK  144  A    between atoms: _386  and  _388
REMARK  145  A    between atoms: _388  and  _389
REMARK  146  A    between atoms: _388  and  _391
REMARK  147  A    between atoms: _391  and  _392
REMARK  148  A    between atoms: _397  and  _398
REMARK  149  A    between atoms: _400  and  _402
REMARK  150  A    between atoms: _402  and  _403
REMARK  151  A    between atoms: _402  and  _405
REMARK  152  A    between atoms: _405  and  _406
REMARK  153  A    between atoms: _411  and  _412
REMARK  154  A    between atoms: _414  and  _416
REMARK  155  A    between atoms: _416  and  _417
REMARK  156  A    between atoms: _416  and  _419
REMARK  157  A    between atoms: _419  and  _420
REMARK  158  A    between atoms: _425  and  _426
REMARK  159  A    between atoms: _428  and  _430
REMARK  160  A    between atoms: _430  and  _431
REMARK  161  A    between atoms: _430  and  _433
REMARK  162  A    between atoms: _433  and  _434
REMARK  163  A    between atoms: _434  and  _435
REMARK  164  A    between atoms: _435  and  _436
REMARK  165  A    between atoms: _445  and  _447
REMARK  166  A    between atoms: _447  and  _448
REMARK  167  A    between atoms: _447  and  _450
REMARK  168  A    between atoms: _450  and  _451
REMARK  169  A    between atoms: _451  and  _452
REMARK  170  A    between atoms: _452  and  _453
REMARK  171  A    between atoms: _462  and  _464
REMARK  172  A    between atoms: _464  and  _465
REMARK  173  A    between atoms: _467  and  _469
REMARK  174  A    between atoms: _469  and  _470
REMARK  175  A    between atoms: _473  and  _475
REMARK  176  A    between atoms: _475  and  _476
REMARK  177  A    between atoms: _475  and  _478
REMARK  178  A    between atoms: _478  and  _479
REMARK  179  A    between atoms: _485  and  _486
REMARK  180  A    between atoms: _491  and  _493
REMARK  181  A    between atoms: _493  and  _494
REMARK  182  A    between atoms: _496  and  _498
REMARK  183  A    between atoms: _498  and  _499
REMARK  184  A    between atoms: _498  and  _501
REMARK  185  A    between atoms: _501  and  _502
REMARK  186  A    between atoms: _508  and  _510
REMARK  187  A    between atoms: _510  and  _511
REMARK  188  A    between atoms: _510  and  _513
REMARK  189  A    between atoms: _513  and  _514
REMARK  190  A    between atoms: _519  and  _521
REMARK  191  A    between atoms: _521  and  _522
REMARK  192  A    between atoms: _521  and  _524
REMARK  193  A    between atoms: _524  and  _525
REMARK  194  A    between atoms: _525  and  _526
REMARK  195  A    between atoms: _526  and  _527
REMARK  196  A    between atoms: _527  and  ZN_792
REMARK  197  A    between atoms: _529  and  _531
REMARK  198  A    between atoms: _531  and  _532
REMARK  199  A    between atoms: _535  and  _537
REMARK  200  A    between atoms: _537  and  _538
REMARK  201  A    between atoms: _540  and  _542
REMARK  202  A    between atoms: _542  and  _543
REMARK  203  A    between atoms: _542  and  _545
REMARK  204  A    between atoms: _545  and  _546
REMARK  205  A    between atoms: _549  and  _551
REMARK  206  A    between atoms: _551  and  _552
REMARK  207  A    between atoms: _551  and  _554
REMARK  208  A    between atoms: _557  and  _559
REMARK  209  A    between atoms: _559  and  _560
REMARK  210  A    between atoms: _563  and  _565
REMARK  211  A    between atoms: _565  and  _566
REMARK  212  A    between atoms: _565  and  _568
REMARK  213  A    between atoms: _568  and  _569
REMARK  214  A    between atoms: _572  and  _574
REMARK  215  A    between atoms: _574  and  _575
REMARK  216  A    between atoms: _574  and  _577
REMARK  217  A    between atoms: _577  and  _578
REMARK  218  A    between atoms: _578  and  _579
REMARK  219  A    between atoms: _582  and  _584
REMARK  220  A    between atoms: _584  and  _585
REMARK  221  A    between atoms: _584  and  _587
REMARK  222  A    between atoms: _587  and  _588
REMARK  223  A    between atoms: _588  and  _589
REMARK  224  A    between atoms: _589  and  _590
REMARK  225  A    between atoms: _590  and  _591
REMARK  226  A    between atoms: _595  and  _597
REMARK  227  A    between atoms: _597  and  _598
REMARK  228  A    between atoms: _597  and  _600
REMARK  229  A    between atoms: _600  and  _601
REMARK  230  A    between atoms: _607  and  _609
REMARK  231  A    between atoms: _609  and  _610
REMARK  232  A    between atoms: _609  and  _612
REMARK  233  A    between atoms: _612  and  _613
REMARK  234  A    between atoms: _619  and  _621
REMARK  235  A    between atoms: _621  and  _622
REMARK  236  A    between atoms: _624  and  _626
REMARK  237  A    between atoms: _626  and  _627
REMARK  238  A    between atoms: _626  and  _629
REMARK  239  A    between atoms: _632  and  _634
REMARK  240  A    between atoms: _634  and  _635
REMARK  241  A    between atoms: _634  and  _637
REMARK  242  A    between atoms: _637  and  _638
REMARK  243  A    between atoms: _638  and  _639
REMARK  244  A    between atoms: _639  and  _640
REMARK  245  A    between atoms: _640  and  _641
REMARK  246  A    between atoms: _645  and  _647
REMARK  247  A    between atoms: _647  and  _648
REMARK  248  A    between atoms: _647  and  _650
REMARK  249  A    between atoms: _650  and  _651
REMARK  250  A    between atoms: _657  and  _659
REMARK  251  A    between atoms: _659  and  _660
REMARK  252  A    between atoms: _659  and  _662
REMARK  253  A    between atoms: _662  and  _663
REMARK  254  A    between atoms: _668  and  _670
REMARK  255  A    between atoms: _670  and  _671
REMARK  256  A    between atoms: _670  and  _673
REMARK  257  A    between atoms: _673  and  _674
REMARK  258  A    between atoms: _679  and  _681
REMARK  259  A    between atoms: _681  and  _682
REMARK  260  A    between atoms: _681  and  _684
REMARK  261  A    between atoms: _687  and  _689
REMARK  262  A    between atoms: _689  and  _690
REMARK  263  A    between atoms: _689  and  _692
REMARK  264  A    between atoms: _692  and  _693
REMARK  265  A    between atoms: _697  and  _698
REMARK  266  A    between atoms: _703  and  _705
REMARK  267  A    between atoms: _705  and  _706
REMARK  268  A    between atoms: _705  and  _708
REMARK  269  A    between atoms: _708  and  _709
REMARK  270  A    between atoms: _714  and  _715
REMARK  271  A    between atoms: _717  and  _719
REMARK  272  A    between atoms: _719  and  _720
REMARK  273  A    between atoms: _719  and  _722
REMARK  274  A    between atoms: _722  and  _723
REMARK  275  A    between atoms: _723  and  _724
REMARK  276  A    between atoms: _724  and  _725
REMARK  277  A    between atoms: _734  and  _736
REMARK  278  A    between atoms: _736  and  _737
REMARK  279  A    between atoms: _736  and  _739
REMARK  280  A    between atoms: _739  and  _740
REMARK  281  A    between atoms: _745  and  _746
REMARK  282  A    between atoms: _748  and  _750
REMARK  283  A    between atoms: _750  and  _751
REMARK  284  A    between atoms: _750  and  _753
REMARK  285  A    between atoms: _753  and  _754
REMARK  286  A    between atoms: _760  and  _762
REMARK  287  A    between atoms: _762  and  _763
REMARK  288  A    between atoms: _762  and  _765
REMARK  289  A    between atoms: _765  and  _766
REMARK  290  A    between atoms: _768  and  _770
REMARK  291  A    between atoms: _770  and  _771
REMARK  292  A    between atoms: _770  and  _773
REMARK  293  A    between atoms: _773  and  _774
REMARK  294  A    between atoms: _780  and  _782
REMARK  295  A    between atoms: _782  and  _783
REMARK  296  A    between atoms: _782  and  _785
REMARK  297  A    between atoms: _785  and  _786
REMARK  298  A    between atoms: _786  and  _787
REMARK                            x       y       z     vdW  Elec       q    Type
REMARK                         _______ _______ _______ _____ _____    ______ ____
ROOT
ATOM      1  O   HOH     1      12.021 -14.667 -21.822  0.00  0.00    +0.000 OA
ENDROOT
TORSDOF 0
REMARK  Name = ../refined-set-2016/4ca6/4ca6_pocket.pdb
REMARK  298 active torsions:
REMARK  status: ('A' for Active; 'I' for Inactive)
REMARK    1  A    between atoms: _1  and  _3
REMARK    2  A    between atoms: _3  and  _4
REMARK    3  A    between atoms: _3  and  _6
REMARK    4  A    between atoms: _6  and  _7
REMARK    5  A    between atoms: _10  and  _12
REMARK    6  A    between atoms: _12  and  _13
REMARK    7  A    between atoms: _12  and  _15
REMARK    8  A    between atoms: _15  and  _16
REMARK    9  A    between atoms: _18  and  _20
REMARK   10  A    between atoms: _20  and  _21
REMARK   11  A    between atoms: _20  and  _23
REMARK   12  A    between atoms: _23  and  _24
REMARK   13  A    between atoms: _29  and  _30
REMARK   14  A    between atoms: _32  and  _34
REMARK   15  A    between atoms: _34  and  _35
REMARK   16  A    between atoms: _34  and  _37
REMARK   17  A    between atoms: _37  and  _38
REMARK   18  A    between atoms: _48  and  _50
REMARK   19  A    between atoms: _50  and  _51
REMARK   20  A    between atoms: _50  and  _53
REMARK   21  A    between atoms: _53  and  _54
REMARK   22  A    between atoms: _57  and  _59
REMARK   23  A    between atoms: _59  and  _60
REMARK   24  A    between atoms: _59  and  _62
REMARK   25  A    between atoms: _62  and  _63
REMARK   26  A    between atoms: _73  and  _75
REMARK   27  A    between atoms: _75  and  _76
REMARK   28  A    between atoms: _75  and  _78
REMARK   29  A    between atoms: _78  and  _79
REMARK   30  A    between atoms: _79  and  _80
REMARK   31  A    between atoms: _85  and  _87
REMARK   32  A    between atoms: _87  and  _88
REMARK   33  A    between atoms: _87  and  _90
REMARK   34  A    between atoms: _90  and  _91
REMARK   35  A    between atoms: _93  and  _95
REMARK   36  A    between atoms: _95  and  _96
REMARK   37  A    between atoms: _95  and  _98
REMARK   38  A    between atoms: _98  and  _99
REMARK   39  A    between atoms: _99  and  _100
REMARK   40  A    between atoms: _103  and  _105
REMARK   41  A    between atoms: _105  and  _106
REMARK   42  A    between atoms: _105  and  _108
REMARK   43  A    between atoms: _111  and  _113
REMARK   44  A    between atoms: _113  and  _114
REMARK   45  A    between atoms: _113  and  _116
REMARK   46  A    between atoms: _118  and  _120
REMARK   47  A    between atoms: _120  and  _121
REMARK   48  A    between atoms: _120  and  _123
REMARK   49  A    between atoms: _123  and  _124
REMARK   50  A    between atoms: _129  and  _131
REMARK   51  A    between atoms: _131  and  _132
REMARK   52  A    between atoms: _135  and  _137
REMARK   53  A    between atoms: _137  and  _138
REMARK   54  A    between atoms: _137  and  _140
REMARK   55  A    between atoms: _140  and  _141
REMARK   56  A    between atoms: _143  and  _145
REMARK   57  A    between atoms: _145  and  _146
REMARK   58  A    between atoms: _149  and  _151
REMARK   59  A    between atoms: _151  and  _152
REMARK   60  A    between atoms: _151  and  _154
REMARK   61  A    between atoms: _154  and  _155
REMARK   62  A    between atoms: _165  and  _167
REMARK   63  A    between atoms: _167  and  _168
REMARK   64  A    between atoms: _167  and  _170
REMARK   65  A    between atoms: _170  and  _171
REMARK   66  A    between atoms: _174  and  _176
REMARK   67  A    between atoms: _176  and  _177
REMARK   68  A    between atoms: _176  and  _179
REMARK   69  A    between atoms: _179  and  _180
REMARK   70  A    between atoms: _185  and  _186
REMARK   71  A    between atoms: _188  and  _190
REMARK   72  A    between atoms: _190  and  _191
REMARK   73  A    between atoms: _190  and  _193
REMARK   74  A    between atoms: _193  and  _194
REMARK   75  A    between atoms: _194  and  _195
REMARK   76  A    between atoms: _195  and  _196
REMARK   77  A    between atoms: _205  and  _207
REMARK   78  A    between atoms: _207  and  _208
REMARK   79  A    between atoms: _207  and  _210
REMARK   80  A    between atoms: _210  and  _211
REMARK   81  A    between atoms: _214  and  _216
REMARK   82  A    between atoms: _216  and  _217
REMARK   83  A    between atoms: _216  and  _219
REMARK   84  A    between atoms: _219  and  _220
REMARK   85  A    between atoms: _220  and  _221
REMARK   86  A    between atoms: _221  and  _222
REMARK   87  A    between atoms: _222  and  _223
REMARK   88  A    between atoms: _227  and  _229
REMARK   89  A    between atoms: _229  and  _230
REMARK   90  A    between atoms: _229  and  _232
REMARK   91  A    between atoms: _232  and  _233
REMARK   92  A    between atoms: _233  and  _234
REMARK   93  A    between atoms: _239  and  _241
REMARK   94  A    between atoms: _241  and  _242
REMARK   95  A    between atoms: _241  and  _244
REMARK   96  A    between atoms: _244  and  _245
REMARK   97  A    between atoms: _245  and  _246
REMARK   98  A    between atoms: _246  and  _247
REMARK   99  A    between atoms: _256  and  _258
REMARK  100  A    between atoms: _258  and  _259
REMARK  101  A    between atoms: _258  and  _261
REMARK  102  A    between atoms: _261  and  _262
REMARK  103  A    between atoms: _262  and  _263
REMARK  104  A    between atoms: _265  and  _267
REMARK  105  A    between atoms: _267  and  _268
REMARK  106  A    between atoms: _267  and  _270
REMARK  107  A    between atoms: _270  and  _271
REMARK  108  A    between atoms: _274  and  _276
REMARK  109  A    between atoms: _276  and  _277
REMARK  110  A    between atoms: _276  and  _279
REMARK  111  A    between atoms: _279  and  _280
REMARK  112  A    between atoms: _280  and  _281
REMARK  113  A    between atoms: _286  and  _288
REMARK  114  A    between atoms: _288  and  _289
REMARK  115  A    between atoms: _288  and  _291
REMARK  116  A    between atoms: _291  and  _292
REMARK  117  A    between atoms: _295  and  _297
REMARK  118  A    between atoms: _297  and  _298
REMARK  119  A    between atoms: _297  and  _300
REMARK  120  A    between atoms: _300  and  _301
REMARK  121  A    between atoms: _303  and  _305
REMARK  122  A    between atoms: _305  and  _306
REMARK  123  A    between atoms: _305  and  _308
REMARK  124  A    between atoms: _308  and  _309
REMARK  125  A    between atoms: _312  and  _314
REMARK  126  A    between atoms: _314  and  _315
REMARK  127  A    between atoms: _314  and  _317
REMARK  128  A    between atoms: _320  and  _322
REMARK  129  A    between atoms: _322  and  _323
REMARK  130  A    between atoms: _322  and  _325
REMARK  131  A    between atoms: _325  and  _326
REMARK  132  A    between atoms: _331  and  _333
REMARK  133  A    between atoms: _344  and  _347
REMARK  134  A    between atoms: _347  and  _348
REMARK  135  A    between atoms: _348  and  _349
REMARK  136  A    between atoms: _354  and  _357
REMARK  137  A    between atoms: _357  and  _358
REMARK  138  A    between atoms: _358  and  _359
REMARK  139  A    between atoms: _368  and  _369
REMARK  140  A    between atoms: _377  and  _379
REMARK  141  A    between atoms: _379  and  _380
REMARK  142  A    between atoms: _379  and  _382
REMARK  143  A    between atoms: _382  and  _383
REMARK  144  A    between atoms: _386  and  _388
REMARK  145  A    between atoms: _388  and  _389
REMARK  146  A    between atoms: _388  and  _391
REMARK  147  A    between atoms: _391  and  _392
REMARK  148  A    between atoms: _397  and  _398
REMARK  149  A    between atoms: _400  and  _402
REMARK  150  A    between atoms: _402  and  _403
REMARK  151  A    between atoms: _402  and  _405
REMARK  152  A    between atoms: _405  and  _406
REMARK  153  A    between atoms: _411  and  _412
REMARK  154  A    between atoms: _414  and  _416
REMARK  155  A    between atoms: _416  and  _417
REMARK  156  A    between atoms: _416  and  _419
REMARK  157  A    between atoms: _419  and  _420
REMARK  158  A    between atoms: _425  and  _426
REMARK  159  A    between atoms: _428  and  _430
REMARK  160  A    between atoms: _430  and  _431
REMARK  161  A    between atoms: _430  and  _433
REMARK  162  A    between atoms: _433  and  _434
REMARK  163  A    between atoms: _434  and  _435
REMARK  164  A    between atoms: _435  and  _436
REMARK  165  A    between atoms: _445  and  _447
REMARK  166  A    between atoms: _447  and  _448
REMARK  167  A    between atoms: _447  and  _450
REMARK  168  A    between atoms: _450  and  _451
REMARK  169  A    between atoms: _451  and  _452
REMARK  170  A    between atoms: _452  and  _453
REMARK  171  A    between atoms: _462  and  _464
REMARK  172  A    between atoms: _464  and  _465
REMARK  173  A    between atoms: _467  and  _469
REMARK  174  A    between atoms: _469  and  _470
REMARK  175  A    between atoms: _473  and  _475
REMARK  176  A    between atoms: _475  and  _476
REMARK  177  A    between atoms: _475  and  _478
REMARK  178  A    between atoms: _478  and  _479
REMARK  179  A    between atoms: _485  and  _486
REMARK  180  A    between atoms: _491  and  _493
REMARK  181  A    between atoms: _493  and  _494
REMARK  182  A    between atoms: _496  and  _498
REMARK  183  A    between atoms: _498  and  _499
REMARK  184  A    between atoms: _498  and  _501
REMARK  185  A    between atoms: _501  and  _502
REMARK  186  A    between atoms: _508  and  _510
REMARK  187  A    between atoms: _510  and  _511
REMARK  188  A    between atoms: _510  and  _513
REMARK  189  A    between atoms: _513  and  _514
REMARK  190  A    between atoms: _519  and  _521
REMARK  191  A    between atoms: _521  and  _522
REMARK  192  A    between atoms: _521  and  _524
REMARK  193  A    between atoms: _524  and  _525
REMARK  194  A    between atoms: _525  and  _526
REMARK  195  A    between atoms: _526  and  _527
REMARK  196  A    between atoms: _527  and  ZN_792
REMARK  197  A    between atoms: _529  and  _531
REMARK  198  A    between atoms: _531  and  _532
REMARK  199  A    between atoms: _535  and  _537
REMARK  200  A    between atoms: _537  and  _538
REMARK  201  A    between atoms: _540  and  _542
REMARK  202  A    between atoms: _542  and  _543
REMARK  203  A    between atoms: _542  and  _545
REMARK  204  A    between atoms: _545  and  _546
REMARK  205  A    between atoms: _549  and  _551
REMARK  206  A    between atoms: _551  and  _552
REMARK  207  A    between atoms: _551  and  _554
REMARK  208  A    between atoms: _557  and  _559
REMARK  209  A    between atoms: _559  and  _560
REMARK  210  A    between atoms: _563  and  _565
REMARK  211  A    between atoms: _565  and  _566
REMARK  212  A    between atoms: _565  and  _568
REMARK  213  A    between atoms: _568  and  _569
REMARK  214  A    between atoms: _572  and  _574
REMARK  215  A    between atoms: _574  and  _575
REMARK  216  A    between atoms: _574  and  _577
REMARK  217  A    between atoms: _577  and  _578
REMARK  218  A    between atoms: _578  and  _579
REMARK  219  A    between atoms: _582  and  _584
REMARK  220  A    between atoms: _584  and  _585
REMARK  221  A    between atoms: _584  and  _587
REMARK  222  A    between atoms: _587  and  _588
REMARK  223  A    between atoms: _588  and  _589
REMARK  224  A    between atoms: _589  and  _590
REMARK  225  A    between atoms: _590  and  _591
REMARK  226  A    between atoms: _595  and  _597
REMARK  227  A    between atoms: _597  and  _598
REMARK  228  A    between atoms: _597  and  _600
REMARK  229  A    between atoms: _600  and  _601
REMARK  230  A    between atoms: _607  and  _609
REMARK  231  A    between atoms: _609  and  _610
REMARK  232  A    between atoms: _609  and  _612
REMARK  233  A    between atoms: _612  and  _613
REMARK  234  A    between atoms: _619  and  _621
REMARK  235  A    between atoms: _621  and  _622
REMARK  236  A    between atoms: _624  and  _626
REMARK  237  A    between atoms: _626  and  _627
REMARK  238  A    between atoms: _626  and  _629
REMARK  239  A    between atoms: _632  and  _634
REMARK  240  A    between atoms: _634  and  _635
REMARK  241  A    between atoms: _634  and  _637
REMARK  242  A    between atoms: _637  and  _638
REMARK  243  A    between atoms: _638  and  _639
REMARK  244  A    between atoms: _639  and  _640
REMARK  245  A    between atoms: _640  and  _641
REMARK  246  A    between atoms: _645  and  _647
REMARK  247  A    between atoms: _647  and  _648
REMARK  248  A    between atoms: _647  and  _650
REMARK  249  A    between atoms: _650  and  _651
REMARK  250  A    between atoms: _657  and  _659
REMARK  251  A    between atoms: _659  and  _660
REMARK  252  A    between atoms: _659  and  _662
REMARK  253  A    between atoms: _662  and  _663
REMARK  254  A    between atoms: _668  and  _670
REMARK  255  A    between atoms: _670  and  _671
REMARK  256  A    between atoms: _670  and  _673
REMARK  257  A    between atoms: _673  and  _674
REMARK  258  A    between atoms: _679  and  _681
REMARK  259  A    between atoms: _681  and  _682
REMARK  260  A    between atoms: _681  and  _684
REMARK  261  A    between atoms: _687  and  _689
REMARK  262  A    between atoms: _689  and  _690
REMARK  263  A    between atoms: _689  and  _692
REMARK  264  A    between atoms: _692  and  _693
REMARK  265  A    between atoms: _697  and  _698
REMARK  266  A    between atoms: _703  and  _705
REMARK  267  A    between atoms: _705  and  _706
REMARK  268  A    between atoms: _705  and  _708
REMARK  269  A    between atoms: _708  and  _709
REMARK  270  A    between atoms: _714  and  _715
REMARK  271  A    between atoms: _717  and  _719
REMARK  272  A    between atoms: _719  and  _720
REMARK  273  A    between atoms: _719  and  _722
REMARK  274  A    between atoms: _722  and  _723
REMARK  275  A    between atoms: _723  and  _724
REMARK  276  A    between atoms: _724  and  _725
REMARK  277  A    between atoms: _734  and  _736
REMARK  278  A    between atoms: _736  and  _737
REMARK  279  A    between atoms: _736  and  _739
REMARK  280  A    between atoms: _739  and  _740
REMARK  281  A    between atoms: _745  and  _746
REMARK  282  A    between atoms: _748  and  _750
REMARK  283  A    between atoms: _750  and  _751
REMARK  284  A    between atoms: _750  and  _753
REMARK  285  A    between atoms: _753  and  _754
REMARK  286  A    between atoms: _760  and  _762
REMARK  287  A    between atoms: _762  and  _763
REMARK  288  A    between atoms: _762  and  _765
REMARK  289  A    between atoms: _765  and  _766
REMARK  290  A    between atoms: _768  and  _770
REMARK  291  A    between atoms: _770  and  _771
REMARK  292  A    between atoms: _770  and  _773
REMARK  293  A    between atoms: _773  and  _774
REMARK  294  A    between atoms: _780  and  _782
REMARK  295  A    between atoms: _782  and  _783
REMARK  296  A    between atoms: _782  and  _785
REMARK  297  A    between atoms: _785  and  _786
REMARK  298  A    between atoms: _786  and  _787
REMARK                            x       y       z     vdW  Elec       q    Type
REMARK                         _______ _______ _______ _____ _____    ______ ____
ROOT
ATOM      1  O   HOH     1      12.074 -12.005 -24.428  0.00  0.00    +0.000 OA
ENDROOT
TORSDOF 0
REMARK  Name = ../refined-set-2016/4ca6/4ca6_pocket.pdb
REMARK  298 active torsions:
REMARK  status: ('A' for Active; 'I' for Inactive)
REMARK    1  A    between atoms: _1  and  _3
REMARK    2  A    between atoms: _3  and  _4
REMARK    3  A    between atoms: _3  and  _6
REMARK    4  A    between atoms: _6  and  _7
REMARK    5  A    between atoms: _10  and  _12
REMARK    6  A    between atoms: _12  and  _13
REMARK    7  A    between atoms: _12  and  _15
REMARK    8  A    between atoms: _15  and  _16
REMARK    9  A    between atoms: _18  and  _20
REMARK   10  A    between atoms: _20  and  _21
REMARK   11  A    between atoms: _20  and  _23
REMARK   12  A    between atoms: _23  and  _24
REMARK   13  A    between atoms: _29  and  _30
REMARK   14  A    between atoms: _32  and  _34
REMARK   15  A    between atoms: _34  and  _35
REMARK   16  A    between atoms: _34  and  _37
REMARK   17  A    between atoms: _37  and  _38
REMARK   18  A    between atoms: _48  and  _50
REMARK   19  A    between atoms: _50  and  _51
REMARK   20  A    between atoms: _50  and  _53
REMARK   21  A    between atoms: _53  and  _54
REMARK   22  A    between atoms: _57  and  _59
REMARK   23  A    between atoms: _59  and  _60
REMARK   24  A    between atoms: _59  and  _62
REMARK   25  A    between atoms: _62  and  _63
REMARK   26  A    between atoms: _73  and  _75
REMARK   27  A    between atoms: _75  and  _76
REMARK   28  A    between atoms: _75  and  _78
REMARK   29  A    between atoms: _78  and  _79
REMARK   30  A    between atoms: _79  and  _80
REMARK   31  A    between atoms: _85  and  _87
REMARK   32  A    between atoms: _87  and  _88
REMARK   33  A    between atoms: _87  and  _90
REMARK   34  A    between atoms: _90  and  _91
REMARK   35  A    between atoms: _93  and  _95
REMARK   36  A    between atoms: _95  and  _96
REMARK   37  A    between atoms: _95  and  _98
REMARK   38  A    between atoms: _98  and  _99
REMARK   39  A    between atoms: _99  and  _100
REMARK   40  A    between atoms: _103  and  _105
REMARK   41  A    between atoms: _105  and  _106
REMARK   42  A    between atoms: _105  and  _108
REMARK   43  A    between atoms: _111  and  _113
REMARK   44  A    between atoms: _113  and  _114
REMARK   45  A    between atoms: _113  and  _116
REMARK   46  A    between atoms: _118  and  _120
REMARK   47  A    between atoms: _120  and  _121
REMARK   48  A    between atoms: _120  and  _123
REMARK   49  A    between atoms: _123  and  _124
REMARK   50  A    between atoms: _129  and  _131
REMARK   51  A    between atoms: _131  and  _132
REMARK   52  A    between atoms: _135  and  _137
REMARK   53  A    between atoms: _137  and  _138
REMARK   54  A    between atoms: _137  and  _140
REMARK   55  A    between atoms: _140  and  _141
REMARK   56  A    between atoms: _143  and  _145
REMARK   57  A    between atoms: _145  and  _146
REMARK   58  A    between atoms: _149  and  _151
REMARK   59  A    between atoms: _151  and  _152
REMARK   60  A    between atoms: _151  and  _154
REMARK   61  A    between atoms: _154  and  _155
REMARK   62  A    between atoms: _165  and  _167
REMARK   63  A    between atoms: _167  and  _168
REMARK   64  A    between atoms: _167  and  _170
REMARK   65  A    between atoms: _170  and  _171
REMARK   66  A    between atoms: _174  and  _176
REMARK   67  A    between atoms: _176  and  _177
REMARK   68  A    between atoms: _176  and  _179
REMARK   69  A    between atoms: _179  and  _180
REMARK   70  A    between atoms: _185  and  _186
REMARK   71  A    between atoms: _188  and  _190
REMARK   72  A    between atoms: _190  and  _191
REMARK   73  A    between atoms: _190  and  _193
REMARK   74  A    between atoms: _193  and  _194
REMARK   75  A    between atoms: _194  and  _195
REMARK   76  A    between atoms: _195  and  _196
REMARK   77  A    between atoms: _205  and  _207
REMARK   78  A    between atoms: _207  and  _208
REMARK   79  A    between atoms: _207  and  _210
REMARK   80  A    between atoms: _210  and  _211
REMARK   81  A    between atoms: _214  and  _216
REMARK   82  A    between atoms: _216  and  _217
REMARK   83  A    between atoms: _216  and  _219
REMARK   84  A    between atoms: _219  and  _220
REMARK   85  A    between atoms: _220  and  _221
REMARK   86  A    between atoms: _221  and  _222
REMARK   87  A    between atoms: _222  and  _223
REMARK   88  A    between atoms: _227  and  _229
REMARK   89  A    between atoms: _229  and  _230
REMARK   90  A    between atoms: _229  and  _232
REMARK   91  A    between atoms: _232  and  _233
REMARK   92  A    between atoms: _233  and  _234
REMARK   93  A    between atoms: _239  and  _241
REMARK   94  A    between atoms: _241  and  _242
REMARK   95  A    between atoms: _241  and  _244
REMARK   96  A    between atoms: _244  and  _245
REMARK   97  A    between atoms: _245  and  _246
REMARK   98  A    between atoms: _246  and  _247
REMARK   99  A    between atoms: _256  and  _258
REMARK  100  A    between atoms: _258  and  _259
REMARK  101  A    between atoms: _258  and  _261
REMARK  102  A    between atoms: _261  and  _262
REMARK  103  A    between atoms: _262  and  _263
REMARK  104  A    between atoms: _265  and  _267
REMARK  105  A    between atoms: _267  and  _268
REMARK  106  A    between atoms: _267  and  _270
REMARK  107  A    between atoms: _270  and  _271
REMARK  108  A    between atoms: _274  and  _276
REMARK  109  A    between atoms: _276  and  _277
REMARK  110  A    between atoms: _276  and  _279
REMARK  111  A    between atoms: _279  and  _280
REMARK  112  A    between atoms: _280  and  _281
REMARK  113  A    between atoms: _286  and  _288
REMARK  114  A    between atoms: _288  and  _289
REMARK  115  A    between atoms: _288  and  _291
REMARK  116  A    between atoms: _291  and  _292
REMARK  117  A    between atoms: _295  and  _297
REMARK  118  A    between atoms: _297  and  _298
REMARK  119  A    between atoms: _297  and  _300
REMARK  120  A    between atoms: _300  and  _301
REMARK  121  A    between atoms: _303  and  _305
REMARK  122  A    between atoms: _305  and  _306
REMARK  123  A    between atoms: _305  and  _308
REMARK  124  A    between atoms: _308  and  _309
REMARK  125  A    between atoms: _312  and  _314
REMARK  126  A    between atoms: _314  and  _315
REMARK  127  A    between atoms: _314  and  _317
REMARK  128  A    between atoms: _320  and  _322
REMARK  129  A    between atoms: _322  and  _323
REMARK  130  A    between atoms: _322  and  _325
REMARK  131  A    between atoms: _325  and  _326
REMARK  132  A    between atoms: _331  and  _333
REMARK  133  A    between atoms: _344  and  _347
REMARK  134  A    between atoms: _347  and  _348
REMARK  135  A    between atoms: _348  and  _349
REMARK  136  A    between atoms: _354  and  _357
REMARK  137  A    between atoms: _357  and  _358
REMARK  138  A    between atoms: _358  and  _359
REMARK  139  A    between atoms: _368  and  _369
REMARK  140  A    between atoms: _377  and  _379
REMARK  141  A    between atoms: _379  and  _380
REMARK  142  A    between atoms: _379  and  _382
REMARK  143  A    between atoms: _382  and  _383
REMARK  144  A    between atoms: _386  and  _388
REMARK  145  A    between atoms: _388  and  _389
REMARK  146  A    between atoms: _388  and  _391
REMARK  147  A    between atoms: _391  and  _392
REMARK  148  A    between atoms: _397  and  _398
REMARK  149  A    between atoms: _400  and  _402
REMARK  150  A    between atoms: _402  and  _403
REMARK  151  A    between atoms: _402  and  _405
REMARK  152  A    between atoms: _405  and  _406
REMARK  153  A    between atoms: _411  and  _412
REMARK  154  A    between atoms: _414  and  _416
REMARK  155  A    between atoms: _416  and  _417
REMARK  156  A    between atoms: _416  and  _419
REMARK  157  A    between atoms: _419  and  _420
REMARK  158  A    between atoms: _425  and  _426
REMARK  159  A    between atoms: _428  and  _430
REMARK  160  A    between atoms: _430  and  _431
REMARK  161  A    between atoms: _430  and  _433
REMARK  162  A    between atoms: _433  and  _434
REMARK  163  A    between atoms: _434  and  _435
REMARK  164  A    between atoms: _435  and  _436
REMARK  165  A    between atoms: _445  and  _447
REMARK  166  A    between atoms: _447  and  _448
REMARK  167  A    between atoms: _447  and  _450
REMARK  168  A    between atoms: _450  and  _451
REMARK  169  A    between atoms: _451  and  _452
REMARK  170  A    between atoms: _452  and  _453
REMARK  171  A    between atoms: _462  and  _464
REMARK  172  A    between atoms: _464  and  _465
REMARK  173  A    between atoms: _467  and  _469
REMARK  174  A    between atoms: _469  and  _470
REMARK  175  A    between atoms: _473  and  _475
REMARK  176  A    between atoms: _475  and  _476
REMARK  177  A    between atoms: _475  and  _478
REMARK  178  A    between atoms: _478  and  _479
REMARK  179  A    between atoms: _485  and  _486
REMARK  180  A    between atoms: _491  and  _493
REMARK  181  A    between atoms: _493  and  _494
REMARK  182  A    between atoms: _496  and  _498
REMARK  183  A    between atoms: _498  and  _499
REMARK  184  A    between atoms: _498  and  _501
REMARK  185  A    between atoms: _501  and  _502
REMARK  186  A    between atoms: _508  and  _510
REMARK  187  A    between atoms: _510  and  _511
REMARK  188  A    between atoms: _510  and  _513
REMARK  189  A    between atoms: _513  and  _514
REMARK  190  A    between atoms: _519  and  _521
REMARK  191  A    between atoms: _521  and  _522
REMARK  192  A    between atoms: _521  and  _524
REMARK  193  A    between atoms: _524  and  _525
REMARK  194  A    between atoms: _525  and  _526
REMARK  195  A    between atoms: _526  and  _527
REMARK  196  A    between atoms: _527  and  ZN_792
REMARK  197  A    between atoms: _529  and  _531
REMARK  198  A    between atoms: _531  and  _532
REMARK  199  A    between atoms: _535  and  _537
REMARK  200  A    between atoms: _537  and  _538
REMARK  201  A    between atoms: _540  and  _542
REMARK  202  A    between atoms: _542  and  _543
REMARK  203  A    between atoms: _542  and  _545
REMARK  204  A    between atoms: _545  and  _546
REMARK  205  A    between atoms: _549  and  _551
REMARK  206  A    between atoms: _551  and  _552
REMARK  207  A    between atoms: _551  and  _554
REMARK  208  A    between atoms: _557  and  _559
REMARK  209  A    between atoms: _559  and  _560
REMARK  210  A    between atoms: _563  and  _565
REMARK  211  A    between atoms: _565  and  _566
REMARK  212  A    between atoms: _565  and  _568
REMARK  213  A    between atoms: _568  and  _569
REMARK  214  A    between atoms: _572  and  _574
REMARK  215  A    between atoms: _574  and  _575
REMARK  216  A    between atoms: _574  and  _577
REMARK  217  A    between atoms: _577  and  _578
REMARK  218  A    between atoms: _578  and  _579
REMARK  219  A    between atoms: _582  and  _584
REMARK  220  A    between atoms: _584  and  _585
REMARK  221  A    between atoms: _584  and  _587
REMARK  222  A    between atoms: _587  and  _588
REMARK  223  A    between atoms: _588  and  _589
REMARK  224  A    between atoms: _589  and  _590
REMARK  225  A    between atoms: _590  and  _591
REMARK  226  A    between atoms: _595  and  _597
REMARK  227  A    between atoms: _597  and  _598
REMARK  228  A    between atoms: _597  and  _600
REMARK  229  A    between atoms: _600  and  _601
REMARK  230  A    between atoms: _607  and  _609
REMARK  231  A    between atoms: _609  and  _610
REMARK  232  A    between atoms: _609  and  _612
REMARK  233  A    between atoms: _612  and  _613
REMARK  234  A    between atoms: _619  and  _621
REMARK  235  A    between atoms: _621  and  _622
REMARK  236  A    between atoms: _624  and  _626
REMARK  237  A    between atoms: _626  and  _627
REMARK  238  A    between atoms: _626  and  _629
REMARK  239  A    between atoms: _632  and  _634
REMARK  240  A    between atoms: _634  and  _635
REMARK  241  A    between atoms: _634  and  _637
REMARK  242  A    between atoms: _637  and  _638
REMARK  243  A    between atoms: _638  and  _639
REMARK  244  A    between atoms: _639  and  _640
REMARK  245  A    between atoms: _640  and  _641
REMARK  246  A    between atoms: _645  and  _647
REMARK  247  A    between atoms: _647  and  _648
REMARK  248  A    between atoms: _647  and  _650
REMARK  249  A    between atoms: _650  and  _651
REMARK  250  A    between atoms: _657  and  _659
REMARK  251  A    between atoms: _659  and  _660
REMARK  252  A    between atoms: _659  and  _662
REMARK  253  A    between atoms: _662  and  _663
REMARK  254  A    between atoms: _668  and  _670
REMARK  255  A    between atoms: _670  and  _671
REMARK  256  A    between atoms: _670  and  _673
REMARK  257  A    between atoms: _673  and  _674
REMARK  258  A    between atoms: _679  and  _681
REMARK  259  A    between atoms: _681  and  _682
REMARK  260  A    between atoms: _681  and  _684
REMARK  261  A    between atoms: _687  and  _689
REMARK  262  A    between atoms: _689  and  _690
REMARK  263  A    between atoms: _689  and  _692
REMARK  264  A    between atoms: _692  and  _693
REMARK  265  A    between atoms: _697  and  _698
REMARK  266  A    between atoms: _703  and  _705
REMARK  267  A    between atoms: _705  and  _706
REMARK  268  A    between atoms: _705  and  _708
REMARK  269  A    between atoms: _708  and  _709
REMARK  270  A    between atoms: _714  and  _715
REMARK  271  A    between atoms: _717  and  _719
REMARK  272  A    between atoms: _719  and  _720
REMARK  273  A    between atoms: _719  and  _722
REMARK  274  A    between atoms: _722  and  _723
REMARK  275  A    between atoms: _723  and  _724
REMARK  276  A    between atoms: _724  and  _725
REMARK  277  A    between atoms: _734  and  _736
REMARK  278  A    between atoms: _736  and  _737
REMARK  279  A    between atoms: _736  and  _739
REMARK  280  A    between atoms: _739  and  _740
REMARK  281  A    between atoms: _745  and  _746
REMARK  282  A    between atoms: _748  and  _750
REMARK  283  A    between atoms: _750  and  _751
REMARK  284  A    between atoms: _750  and  _753
REMARK  285  A    between atoms: _753  and  _754
REMARK  286  A    between atoms: _760  and  _762
REMARK  287  A    between atoms: _762  and  _763
REMARK  288  A    between atoms: _762  and  _765
REMARK  289  A    between atoms: _765  and  _766
REMARK  290  A    between atoms: _768  and  _770
REMARK  291  A    between atoms: _770  and  _771
REMARK  292  A    between atoms: _770  and  _773
REMARK  293  A    between atoms: _773  and  _774
REMARK  294  A    between atoms: _780  and  _782
REMARK  295  A    between atoms: _782  and  _783
REMARK  296  A    between atoms: _782  and  _785
REMARK  297  A    between atoms: _785  and  _786
REMARK  298  A    between atoms: _786  and  _787
REMARK                            x       y       z     vdW  Elec       q    Type
REMARK                         _______ _______ _______ _____ _____    ______ ____
ROOT
ATOM      1  O   HOH     1      11.077 -10.066 -26.492  0.00  0.00    +0.000 OA
ENDROOT
TORSDOF 0
REMARK  Name = ../refined-set-2016/4ca6/4ca6_pocket.pdb
REMARK  298 active torsions:
REMARK  status: ('A' for Active; 'I' for Inactive)
REMARK    1  A    between atoms: _1  and  _3
REMARK    2  A    between atoms: _3  and  _4
REMARK    3  A    between atoms: _3  and  _6
REMARK    4  A    between atoms: _6  and  _7
REMARK    5  A    between atoms: _10  and  _12
REMARK    6  A    between atoms: _12  and  _13
REMARK    7  A    between atoms: _12  and  _15
REMARK    8  A    between atoms: _15  and  _16
REMARK    9  A    between atoms: _18  and  _20
REMARK   10  A    between atoms: _20  and  _21
REMARK   11  A    between atoms: _20  and  _23
REMARK   12  A    between atoms: _23  and  _24
REMARK   13  A    between atoms: _29  and  _30
REMARK   14  A    between atoms: _32  and  _34
REMARK   15  A    between atoms: _34  and  _35
REMARK   16  A    between atoms: _34  and  _37
REMARK   17  A    between atoms: _37  and  _38
REMARK   18  A    between atoms: _48  and  _50
REMARK   19  A    between atoms: _50  and  _51
REMARK   20  A    between atoms: _50  and  _53
REMARK   21  A    between atoms: _53  and  _54
REMARK   22  A    between atoms: _57  and  _59
REMARK   23  A    between atoms: _59  and  _60
REMARK   24  A    between atoms: _59  and  _62
REMARK   25  A    between atoms: _62  and  _63
REMARK   26  A    between atoms: _73  and  _75
REMARK   27  A    between atoms: _75  and  _76
REMARK   28  A    between atoms: _75  and  _78
REMARK   29  A    between atoms: _78  and  _79
REMARK   30  A    between atoms: _79  and  _80
REMARK   31  A    between atoms: _85  and  _87
REMARK   32  A    between atoms: _87  and  _88
REMARK   33  A    between atoms: _87  and  _90
REMARK   34  A    between atoms: _90  and  _91
REMARK   35  A    between atoms: _93  and  _95
REMARK   36  A    between atoms: _95  and  _96
REMARK   37  A    between atoms: _95  and  _98
REMARK   38  A    between atoms: _98  and  _99
REMARK   39  A    between atoms: _99  and  _100
REMARK   40  A    between atoms: _103  and  _105
REMARK   41  A    between atoms: _105  and  _106
REMARK   42  A    between atoms: _105  and  _108
REMARK   43  A    between atoms: _111  and  _113
REMARK   44  A    between atoms: _113  and  _114
REMARK   45  A    between atoms: _113  and  _116
REMARK   46  A    between atoms: _118  and  _120
REMARK   47  A    between atoms: _120  and  _121
REMARK   48  A    between atoms: _120  and  _123
REMARK   49  A    between atoms: _123  and  _124
REMARK   50  A    between atoms: _129  and  _131
REMARK   51  A    between atoms: _131  and  _132
REMARK   52  A    between atoms: _135  and  _137
REMARK   53  A    between atoms: _137  and  _138
REMARK   54  A    between atoms: _137  and  _140
REMARK   55  A    between atoms: _140  and  _141
REMARK   56  A    between atoms: _143  and  _145
REMARK   57  A    between atoms: _145  and  _146
REMARK   58  A    between atoms: _149  and  _151
REMARK   59  A    between atoms: _151  and  _152
REMARK   60  A    between atoms: _151  and  _154
REMARK   61  A    between atoms: _154  and  _155
REMARK   62  A    between atoms: _165  and  _167
REMARK   63  A    between atoms: _167  and  _168
REMARK   64  A    between atoms: _167  and  _170
REMARK   65  A    between atoms: _170  and  _171
REMARK   66  A    between atoms: _174  and  _176
REMARK   67  A    between atoms: _176  and  _177
REMARK   68  A    between atoms: _176  and  _179
REMARK   69  A    between atoms: _179  and  _180
REMARK   70  A    between atoms: _185  and  _186
REMARK   71  A    between atoms: _188  and  _190
REMARK   72  A    between atoms: _190  and  _191
REMARK   73  A    between atoms: _190  and  _193
REMARK   74  A    between atoms: _193  and  _194
REMARK   75  A    between atoms: _194  and  _195
REMARK   76  A    between atoms: _195  and  _196
REMARK   77  A    between atoms: _205  and  _207
REMARK   78  A    between atoms: _207  and  _208
REMARK   79  A    between atoms: _207  and  _210
REMARK   80  A    between atoms: _210  and  _211
REMARK   81  A    between atoms: _214  and  _216
REMARK   82  A    between atoms: _216  and  _217
REMARK   83  A    between atoms: _216  and  _219
REMARK   84  A    between atoms: _219  and  _220
REMARK   85  A    between atoms: _220  and  _221
REMARK   86  A    between atoms: _221  and  _222
REMARK   87  A    between atoms: _222  and  _223
REMARK   88  A    between atoms: _227  and  _229
REMARK   89  A    between atoms: _229  and  _230
REMARK   90  A    between atoms: _229  and  _232
REMARK   91  A    between atoms: _232  and  _233
REMARK   92  A    between atoms: _233  and  _234
REMARK   93  A    between atoms: _239  and  _241
REMARK   94  A    between atoms: _241  and  _242
REMARK   95  A    between atoms: _241  and  _244
REMARK   96  A    between atoms: _244  and  _245
REMARK   97  A    between atoms: _245  and  _246
REMARK   98  A    between atoms: _246  and  _247
REMARK   99  A    between atoms: _256  and  _258
REMARK  100  A    between atoms: _258  and  _259
REMARK  101  A    between atoms: _258  and  _261
REMARK  102  A    between atoms: _261  and  _262
REMARK  103  A    between atoms: _262  and  _263
REMARK  104  A    between atoms: _265  and  _267
REMARK  105  A    between atoms: _267  and  _268
REMARK  106  A    between atoms: _267  and  _270
REMARK  107  A    between atoms: _270  and  _271
REMARK  108  A    between atoms: _274  and  _276
REMARK  109  A    between atoms: _276  and  _277
REMARK  110  A    between atoms: _276  and  _279
REMARK  111  A    between atoms: _279  and  _280
REMARK  112  A    between atoms: _280  and  _281
REMARK  113  A    between atoms: _286  and  _288
REMARK  114  A    between atoms: _288  and  _289
REMARK  115  A    between atoms: _288  and  _291
REMARK  116  A    between atoms: _291  and  _292
REMARK  117  A    between atoms: _295  and  _297
REMARK  118  A    between atoms: _297  and  _298
REMARK  119  A    between atoms: _297  and  _300
REMARK  120  A    between atoms: _300  and  _301
REMARK  121  A    between atoms: _303  and  _305
REMARK  122  A    between atoms: _305  and  _306
REMARK  123  A    between atoms: _305  and  _308
REMARK  124  A    between atoms: _308  and  _309
REMARK  125  A    between atoms: _312  and  _314
REMARK  126  A    between atoms: _314  and  _315
REMARK  127  A    between atoms: _314  and  _317
REMARK  128  A    between atoms: _320  and  _322
REMARK  129  A    between atoms: _322  and  _323
REMARK  130  A    between atoms: _322  and  _325
REMARK  131  A    between atoms: _325  and  _326
REMARK  132  A    between atoms: _331  and  _333
REMARK  133  A    between atoms: _344  and  _347
REMARK  134  A    between atoms: _347  and  _348
REMARK  135  A    between atoms: _348  and  _349
REMARK  136  A    between atoms: _354  and  _357
REMARK  137  A    between atoms: _357  and  _358
REMARK  138  A    between atoms: _358  and  _359
REMARK  139  A    between atoms: _368  and  _369
REMARK  140  A    between atoms: _377  and  _379
REMARK  141  A    between atoms: _379  and  _380
REMARK  142  A    between atoms: _379  and  _382
REMARK  143  A    between atoms: _382  and  _383
REMARK  144  A    between atoms: _386  and  _388
REMARK  145  A    between atoms: _388  and  _389
REMARK  146  A    between atoms: _388  and  _391
REMARK  147  A    between atoms: _391  and  _392
REMARK  148  A    between atoms: _397  and  _398
REMARK  149  A    between atoms: _400  and  _402
REMARK  150  A    between atoms: _402  and  _403
REMARK  151  A    between atoms: _402  and  _405
REMARK  152  A    between atoms: _405  and  _406
REMARK  153  A    between atoms: _411  and  _412
REMARK  154  A    between atoms: _414  and  _416
REMARK  155  A    between atoms: _416  and  _417
REMARK  156  A    between atoms: _416  and  _419
REMARK  157  A    between atoms: _419  and  _420
REMARK  158  A    between atoms: _425  and  _426
REMARK  159  A    between atoms: _428  and  _430
REMARK  160  A    between atoms: _430  and  _431
REMARK  161  A    between atoms: _430  and  _433
REMARK  162  A    between atoms: _433  and  _434
REMARK  163  A    between atoms: _434  and  _435
REMARK  164  A    between atoms: _435  and  _436
REMARK  165  A    between atoms: _445  and  _447
REMARK  166  A    between atoms: _447  and  _448
REMARK  167  A    between atoms: _447  and  _450
REMARK  168  A    between atoms: _450  and  _451
REMARK  169  A    between atoms: _451  and  _452
REMARK  170  A    between atoms: _452  and  _453
REMARK  171  A    between atoms: _462  and  _464
REMARK  172  A    between atoms: _464  and  _465
REMARK  173  A    between atoms: _467  and  _469
REMARK  174  A    between atoms: _469  and  _470
REMARK  175  A    between atoms: _473  and  _475
REMARK  176  A    between atoms: _475  and  _476
REMARK  177  A    between atoms: _475  and  _478
REMARK  178  A    between atoms: _478  and  _479
REMARK  179  A    between atoms: _485  and  _486
REMARK  180  A    between atoms: _491  and  _493
REMARK  181  A    between atoms: _493  and  _494
REMARK  182  A    between atoms: _496  and  _498
REMARK  183  A    between atoms: _498  and  _499
REMARK  184  A    between atoms: _498  and  _501
REMARK  185  A    between atoms: _501  and  _502
REMARK  186  A    between atoms: _508  and  _510
REMARK  187  A    between atoms: _510  and  _511
REMARK  188  A    between atoms: _510  and  _513
REMARK  189  A    between atoms: _513  and  _514
REMARK  190  A    between atoms: _519  and  _521
REMARK  191  A    between atoms: _521  and  _522
REMARK  192  A    between atoms: _521  and  _524
REMARK  193  A    between atoms: _524  and  _525
REMARK  194  A    between atoms: _525  and  _526
REMARK  195  A    between atoms: _526  and  _527
REMARK  196  A    between atoms: _527  and  ZN_792
REMARK  197  A    between atoms: _529  and  _531
REMARK  198  A    between atoms: _531  and  _532
REMARK  199  A    between atoms: _535  and  _537
REMARK  200  A    between atoms: _537  and  _538
REMARK  201  A    between atoms: _540  and  _542
REMARK  202  A    between atoms: _542  and  _543
REMARK  203  A    between atoms: _542  and  _545
REMARK  204  A    between atoms: _545  and  _546
REMARK  205  A    between atoms: _549  and  _551
REMARK  206  A    between atoms: _551  and  _552
REMARK  207  A    between atoms: _551  and  _554
REMARK  208  A    between atoms: _557  and  _559
REMARK  209  A    between atoms: _559  and  _560
REMARK  210  A    between atoms: _563  and  _565
REMARK  211  A    between atoms: _565  and  _566
REMARK  212  A    between atoms: _565  and  _568
REMARK  213  A    between atoms: _568  and  _569
REMARK  214  A    between atoms: _572  and  _574
REMARK  215  A    between atoms: _574  and  _575
REMARK  216  A    between atoms: _574  and  _577
REMARK  217  A    between atoms: _577  and  _578
REMARK  218  A    between atoms: _578  and  _579
REMARK  219  A    between atoms: _582  and  _584
REMARK  220  A    between atoms: _584  and  _585
REMARK  221  A    between atoms: _584  and  _587
REMARK  222  A    between atoms: _587  and  _588
REMARK  223  A    between atoms: _588  and  _589
REMARK  224  A    between atoms: _589  and  _590
REMARK  225  A    between atoms: _590  and  _591
REMARK  226  A    between atoms: _595  and  _597
REMARK  227  A    between atoms: _597  and  _598
REMARK  228  A    between atoms: _597  and  _600
REMARK  229  A    between atoms: _600  and  _601
REMARK  230  A    between atoms: _607  and  _609
REMARK  231  A    between atoms: _609  and  _610
REMARK  232  A    between atoms: _609  and  _612
REMARK  233  A    between atoms: _612  and  _613
REMARK  234  A    between atoms: _619  and  _621
REMARK  235  A    between atoms: _621  and  _622
REMARK  236  A    between atoms: _624  and  _626
REMARK  237  A    between atoms: _626  and  _627
REMARK  238  A    between atoms: _626  and  _629
REMARK  239  A    between atoms: _632  and  _634
REMARK  240  A    between atoms: _634  and  _635
REMARK  241  A    between atoms: _634  and  _637
REMARK  242  A    between atoms: _637  and  _638
REMARK  243  A    between atoms: _638  and  _639
REMARK  244  A    between atoms: _639  and  _640
REMARK  245  A    between atoms: _640  and  _641
REMARK  246  A    between atoms: _645  and  _647
REMARK  247  A    between atoms: _647  and  _648
REMARK  248  A    between atoms: _647  and  _650
REMARK  249  A    between atoms: _650  and  _651
REMARK  250  A    between atoms: _657  and  _659
REMARK  251  A    between atoms: _659  and  _660
REMARK  252  A    between atoms: _659  and  _662
REMARK  253  A    between atoms: _662  and  _663
REMARK  254  A    between atoms: _668  and  _670
REMARK  255  A    between atoms: _670  and  _671
REMARK  256  A    between atoms: _670  and  _673
REMARK  257  A    between atoms: _673  and  _674
REMARK  258  A    between atoms: _679  and  _681
REMARK  259  A    between atoms: _681  and  _682
REMARK  260  A    between atoms: _681  and  _684
REMARK  261  A    between atoms: _687  and  _689
REMARK  262  A    between atoms: _689  and  _690
REMARK  263  A    between atoms: _689  and  _692
REMARK  264  A    between atoms: _692  and  _693
REMARK  265  A    between atoms: _697  and  _698
REMARK  266  A    between atoms: _703  and  _705
REMARK  267  A    between atoms: _705  and  _706
REMARK  268  A    between atoms: _705  and  _708
REMARK  269  A    between atoms: _708  and  _709
REMARK  270  A    between atoms: _714  and  _715
REMARK  271  A    between atoms: _717  and  _719
REMARK  272  A    between atoms: _719  and  _720
REMARK  273  A    between atoms: _719  and  _722
REMARK  274  A    between atoms: _722  and  _723
REMARK  275  A    between atoms: _723  and  _724
REMARK  276  A    between atoms: _724  and  _725
REMARK  277  A    between atoms: _734  and  _736
REMARK  278  A    between atoms: _736  and  _737
REMARK  279  A    between atoms: _736  and  _739
REMARK  280  A    between atoms: _739  and  _740
REMARK  281  A    between atoms: _745  and  _746
REMARK  282  A    between atoms: _748  and  _750
REMARK  283  A    between atoms: _750  and  _751
REMARK  284  A    between atoms: _750  and  _753
REMARK  285  A    between atoms: _753  and  _754
REMARK  286  A    between atoms: _760  and  _762
REMARK  287  A    between atoms: _762  and  _763
REMARK  288  A    between atoms: _762  and  _765
REMARK  289  A    between atoms: _765  and  _766
REMARK  290  A    between atoms: _768  and  _770
REMARK  291  A    between atoms: _770  and  _771
REMARK  292  A    between atoms: _770  and  _773
REMARK  293  A    between atoms: _773  and  _774
REMARK  294  A    between atoms: _780  and  _782
REMARK  295  A    between atoms: _782  and  _783
REMARK  296  A    between atoms: _782  and  _785
REMARK  297  A    between atoms: _785  and  _786
REMARK  298  A    between atoms: _786  and  _787
REMARK                            x       y       z     vdW  Elec       q    Type
REMARK                         _______ _______ _______ _____ _____    ______ ____
ROOT
ATOM      1  O   HOH     1      -4.166 -13.878 -28.109  0.00  0.00    +0.000 OA
ENDROOT
TORSDOF 0
REMARK  Name = ../refined-set-2016/4ca6/4ca6_pocket.pdb
REMARK  298 active torsions:
REMARK  status: ('A' for Active; 'I' for Inactive)
REMARK    1  A    between atoms: _1  and  _3
REMARK    2  A    between atoms: _3  and  _4
REMARK    3  A    between atoms: _3  and  _6
REMARK    4  A    between atoms: _6  and  _7
REMARK    5  A    between atoms: _10  and  _12
REMARK    6  A    between atoms: _12  and  _13
REMARK    7  A    between atoms: _12  and  _15
REMARK    8  A    between atoms: _15  and  _16
REMARK    9  A    between atoms: _18  and  _20
REMARK   10  A    between atoms: _20  and  _21
REMARK   11  A    between atoms: _20  and  _23
REMARK   12  A    between atoms: _23  and  _24
REMARK   13  A    between atoms: _29  and  _30
REMARK   14  A    between atoms: _32  and  _34
REMARK   15  A    between atoms: _34  and  _35
REMARK   16  A    between atoms: _34  and  _37
REMARK   17  A    between atoms: _37  and  _38
REMARK   18  A    between atoms: _48  and  _50
REMARK   19  A    between atoms: _50  and  _51
REMARK   20  A    between atoms: _50  and  _53
REMARK   21  A    between atoms: _53  and  _54
REMARK   22  A    between atoms: _57  and  _59
REMARK   23  A    between atoms: _59  and  _60
REMARK   24  A    between atoms: _59  and  _62
REMARK   25  A    between atoms: _62  and  _63
REMARK   26  A    between atoms: _73  and  _75
REMARK   27  A    between atoms: _75  and  _76
REMARK   28  A    between atoms: _75  and  _78
REMARK   29  A    between atoms: _78  and  _79
REMARK   30  A    between atoms: _79  and  _80
REMARK   31  A    between atoms: _85  and  _87
REMARK   32  A    between atoms: _87  and  _88
REMARK   33  A    between atoms: _87  and  _90
REMARK   34  A    between atoms: _90  and  _91
REMARK   35  A    between atoms: _93  and  _95
REMARK   36  A    between atoms: _95  and  _96
REMARK   37  A    between atoms: _95  and  _98
REMARK   38  A    between atoms: _98  and  _99
REMARK   39  A    between atoms: _99  and  _100
REMARK   40  A    between atoms: _103  and  _105
REMARK   41  A    between atoms: _105  and  _106
REMARK   42  A    between atoms: _105  and  _108
REMARK   43  A    between atoms: _111  and  _113
REMARK   44  A    between atoms: _113  and  _114
REMARK   45  A    between atoms: _113  and  _116
REMARK   46  A    between atoms: _118  and  _120
REMARK   47  A    between atoms: _120  and  _121
REMARK   48  A    between atoms: _120  and  _123
REMARK   49  A    between atoms: _123  and  _124
REMARK   50  A    between atoms: _129  and  _131
REMARK   51  A    between atoms: _131  and  _132
REMARK   52  A    between atoms: _135  and  _137
REMARK   53  A    between atoms: _137  and  _138
REMARK   54  A    between atoms: _137  and  _140
REMARK   55  A    between atoms: _140  and  _141
REMARK   56  A    between atoms: _143  and  _145
REMARK   57  A    between atoms: _145  and  _146
REMARK   58  A    between atoms: _149  and  _151
REMARK   59  A    between atoms: _151  and  _152
REMARK   60  A    between atoms: _151  and  _154
REMARK   61  A    between atoms: _154  and  _155
REMARK   62  A    between atoms: _165  and  _167
REMARK   63  A    between atoms: _167  and  _168
REMARK   64  A    between atoms: _167  and  _170
REMARK   65  A    between atoms: _170  and  _171
REMARK   66  A    between atoms: _174  and  _176
REMARK   67  A    between atoms: _176  and  _177
REMARK   68  A    between atoms: _176  and  _179
REMARK   69  A    between atoms: _179  and  _180
REMARK   70  A    between atoms: _185  and  _186
REMARK   71  A    between atoms: _188  and  _190
REMARK   72  A    between atoms: _190  and  _191
REMARK   73  A    between atoms: _190  and  _193
REMARK   74  A    between atoms: _193  and  _194
REMARK   75  A    between atoms: _194  and  _195
REMARK   76  A    between atoms: _195  and  _196
REMARK   77  A    between atoms: _205  and  _207
REMARK   78  A    between atoms: _207  and  _208
REMARK   79  A    between atoms: _207  and  _210
REMARK   80  A    between atoms: _210  and  _211
REMARK   81  A    between atoms: _214  and  _216
REMARK   82  A    between atoms: _216  and  _217
REMARK   83  A    between atoms: _216  and  _219
REMARK   84  A    between atoms: _219  and  _220
REMARK   85  A    between atoms: _220  and  _221
REMARK   86  A    between atoms: _221  and  _222
REMARK   87  A    between atoms: _222  and  _223
REMARK   88  A    between atoms: _227  and  _229
REMARK   89  A    between atoms: _229  and  _230
REMARK   90  A    between atoms: _229  and  _232
REMARK   91  A    between atoms: _232  and  _233
REMARK   92  A    between atoms: _233  and  _234
REMARK   93  A    between atoms: _239  and  _241
REMARK   94  A    between atoms: _241  and  _242
REMARK   95  A    between atoms: _241  and  _244
REMARK   96  A    between atoms: _244  and  _245
REMARK   97  A    between atoms: _245  and  _246
REMARK   98  A    between atoms: _246  and  _247
REMARK   99  A    between atoms: _256  and  _258
REMARK  100  A    between atoms: _258  and  _259
REMARK  101  A    between atoms: _258  and  _261
REMARK  102  A    between atoms: _261  and  _262
REMARK  103  A    between atoms: _262  and  _263
REMARK  104  A    between atoms: _265  and  _267
REMARK  105  A    between atoms: _267  and  _268
REMARK  106  A    between atoms: _267  and  _270
REMARK  107  A    between atoms: _270  and  _271
REMARK  108  A    between atoms: _274  and  _276
REMARK  109  A    between atoms: _276  and  _277
REMARK  110  A    between atoms: _276  and  _279
REMARK  111  A    between atoms: _279  and  _280
REMARK  112  A    between atoms: _280  and  _281
REMARK  113  A    between atoms: _286  and  _288
REMARK  114  A    between atoms: _288  and  _289
REMARK  115  A    between atoms: _288  and  _291
REMARK  116  A    between atoms: _291  and  _292
REMARK  117  A    between atoms: _295  and  _297
REMARK  118  A    between atoms: _297  and  _298
REMARK  119  A    between atoms: _297  and  _300
REMARK  120  A    between atoms: _300  and  _301
REMARK  121  A    between atoms: _303  and  _305
REMARK  122  A    between atoms: _305  and  _306
REMARK  123  A    between atoms: _305  and  _308
REMARK  124  A    between atoms: _308  and  _309
REMARK  125  A    between atoms: _312  and  _314
REMARK  126  A    between atoms: _314  and  _315
REMARK  127  A    between atoms: _314  and  _317
REMARK  128  A    between atoms: _320  and  _322
REMARK  129  A    between atoms: _322  and  _323
REMARK  130  A    between atoms: _322  and  _325
REMARK  131  A    between atoms: _325  and  _326
REMARK  132  A    between atoms: _331  and  _333
REMARK  133  A    between atoms: _344  and  _347
REMARK  134  A    between atoms: _347  and  _348
REMARK  135  A    between atoms: _348  and  _349
REMARK  136  A    between atoms: _354  and  _357
REMARK  137  A    between atoms: _357  and  _358
REMARK  138  A    between atoms: _358  and  _359
REMARK  139  A    between atoms: _368  and  _369
REMARK  140  A    between atoms: _377  and  _379
REMARK  141  A    between atoms: _379  and  _380
REMARK  142  A    between atoms: _379  and  _382
REMARK  143  A    between atoms: _382  and  _383
REMARK  144  A    between atoms: _386  and  _388
REMARK  145  A    between atoms: _388  and  _389
REMARK  146  A    between atoms: _388  and  _391
REMARK  147  A    between atoms: _391  and  _392
REMARK  148  A    between atoms: _397  and  _398
REMARK  149  A    between atoms: _400  and  _402
REMARK  150  A    between atoms: _402  and  _403
REMARK  151  A    between atoms: _402  and  _405
REMARK  152  A    between atoms: _405  and  _406
REMARK  153  A    between atoms: _411  and  _412
REMARK  154  A    between atoms: _414  and  _416
REMARK  155  A    between atoms: _416  and  _417
REMARK  156  A    between atoms: _416  and  _419
REMARK  157  A    between atoms: _419  and  _420
REMARK  158  A    between atoms: _425  and  _426
REMARK  159  A    between atoms: _428  and  _430
REMARK  160  A    between atoms: _430  and  _431
REMARK  161  A    between atoms: _430  and  _433
REMARK  162  A    between atoms: _433  and  _434
REMARK  163  A    between atoms: _434  and  _435
REMARK  164  A    between atoms: _435  and  _436
REMARK  165  A    between atoms: _445  and  _447
REMARK  166  A    between atoms: _447  and  _448
REMARK  167  A    between atoms: _447  and  _450
REMARK  168  A    between atoms: _450  and  _451
REMARK  169  A    between atoms: _451  and  _452
REMARK  170  A    between atoms: _452  and  _453
REMARK  171  A    between atoms: _462  and  _464
REMARK  172  A    between atoms: _464  and  _465
REMARK  173  A    between atoms: _467  and  _469
REMARK  174  A    between atoms: _469  and  _470
REMARK  175  A    between atoms: _473  and  _475
REMARK  176  A    between atoms: _475  and  _476
REMARK  177  A    between atoms: _475  and  _478
REMARK  178  A    between atoms: _478  and  _479
REMARK  179  A    between atoms: _485  and  _486
REMARK  180  A    between atoms: _491  and  _493
REMARK  181  A    between atoms: _493  and  _494
REMARK  182  A    between atoms: _496  and  _498
REMARK  183  A    between atoms: _498  and  _499
REMARK  184  A    between atoms: _498  and  _501
REMARK  185  A    between atoms: _501  and  _502
REMARK  186  A    between atoms: _508  and  _510
REMARK  187  A    between atoms: _510  and  _511
REMARK  188  A    between atoms: _510  and  _513
REMARK  189  A    between atoms: _513  and  _514
REMARK  190  A    between atoms: _519  and  _521
REMARK  191  A    between atoms: _521  and  _522
REMARK  192  A    between atoms: _521  and  _524
REMARK  193  A    between atoms: _524  and  _525
REMARK  194  A    between atoms: _525  and  _526
REMARK  195  A    between atoms: _526  and  _527
REMARK  196  A    between atoms: _527  and  ZN_792
REMARK  197  A    between atoms: _529  and  _531
REMARK  198  A    between atoms: _531  and  _532
REMARK  199  A    between atoms: _535  and  _537
REMARK  200  A    between atoms: _537  and  _538
REMARK  201  A    between atoms: _540  and  _542
REMARK  202  A    between atoms: _542  and  _543
REMARK  203  A    between atoms: _542  and  _545
REMARK  204  A    between atoms: _545  and  _546
REMARK  205  A    between atoms: _549  and  _551
REMARK  206  A    between atoms: _551  and  _552
REMARK  207  A    between atoms: _551  and  _554
REMARK  208  A    between atoms: _557  and  _559
REMARK  209  A    between atoms: _559  and  _560
REMARK  210  A    between atoms: _563  and  _565
REMARK  211  A    between atoms: _565  and  _566
REMARK  212  A    between atoms: _565  and  _568
REMARK  213  A    between atoms: _568  and  _569
REMARK  214  A    between atoms: _572  and  _574
REMARK  215  A    between atoms: _574  and  _575
REMARK  216  A    between atoms: _574  and  _577
REMARK  217  A    between atoms: _577  and  _578
REMARK  218  A    between atoms: _578  and  _579
REMARK  219  A    between atoms: _582  and  _584
REMARK  220  A    between atoms: _584  and  _585
REMARK  221  A    between atoms: _584  and  _587
REMARK  222  A    between atoms: _587  and  _588
REMARK  223  A    between atoms: _588  and  _589
REMARK  224  A    between atoms: _589  and  _590
REMARK  225  A    between atoms: _590  and  _591
REMARK  226  A    between atoms: _595  and  _597
REMARK  227  A    between atoms: _597  and  _598
REMARK  228  A    between atoms: _597  and  _600
REMARK  229  A    between atoms: _600  and  _601
REMARK  230  A    between atoms: _607  and  _609
REMARK  231  A    between atoms: _609  and  _610
REMARK  232  A    between atoms: _609  and  _612
REMARK  233  A    between atoms: _612  and  _613
REMARK  234  A    between atoms: _619  and  _621
REMARK  235  A    between atoms: _621  and  _622
REMARK  236  A    between atoms: _624  and  _626
REMARK  237  A    between atoms: _626  and  _627
REMARK  238  A    between atoms: _626  and  _629
REMARK  239  A    between atoms: _632  and  _634
REMARK  240  A    between atoms: _634  and  _635
REMARK  241  A    between atoms: _634  and  _637
REMARK  242  A    between atoms: _637  and  _638
REMARK  243  A    between atoms: _638  and  _639
REMARK  244  A    between atoms: _639  and  _640
REMARK  245  A    between atoms: _640  and  _641
REMARK  246  A    between atoms: _645  and  _647
REMARK  247  A    between atoms: _647  and  _648
REMARK  248  A    between atoms: _647  and  _650
REMARK  249  A    between atoms: _650  and  _651
REMARK  250  A    between atoms: _657  and  _659
REMARK  251  A    between atoms: _659  and  _660
REMARK  252  A    between atoms: _659  and  _662
REMARK  253  A    between atoms: _662  and  _663
REMARK  254  A    between atoms: _668  and  _670
REMARK  255  A    between atoms: _670  and  _671
REMARK  256  A    between atoms: _670  and  _673
REMARK  257  A    between atoms: _673  and  _674
REMARK  258  A    between atoms: _679  and  _681
REMARK  259  A    between atoms: _681  and  _682
REMARK  260  A    between atoms: _681  and  _684
REMARK  261  A    between atoms: _687  and  _689
REMARK  262  A    between atoms: _689  and  _690
REMARK  263  A    between atoms: _689  and  _692
REMARK  264  A    between atoms: _692  and  _693
REMARK  265  A    between atoms: _697  and  _698
REMARK  266  A    between atoms: _703  and  _705
REMARK  267  A    between atoms: _705  and  _706
REMARK  268  A    between atoms: _705  and  _708
REMARK  269  A    between atoms: _708  and  _709
REMARK  270  A    between atoms: _714  and  _715
REMARK  271  A    between atoms: _717  and  _719
REMARK  272  A    between atoms: _719  and  _720
REMARK  273  A    between atoms: _719  and  _722
REMARK  274  A    between atoms: _722  and  _723
REMARK  275  A    between atoms: _723  and  _724
REMARK  276  A    between atoms: _724  and  _725
REMARK  277  A    between atoms: _734  and  _736
REMARK  278  A    between atoms: _736  and  _737
REMARK  279  A    between atoms: _736  and  _739
REMARK  280  A    between atoms: _739  and  _740
REMARK  281  A    between atoms: _745  and  _746
REMARK  282  A    between atoms: _748  and  _750
REMARK  283  A    between atoms: _750  and  _751
REMARK  284  A    between atoms: _750  and  _753
REMARK  285  A    between atoms: _753  and  _754
REMARK  286  A    between atoms: _760  and  _762
REMARK  287  A    between atoms: _762  and  _763
REMARK  288  A    between atoms: _762  and  _765
REMARK  289  A    between atoms: _765  and  _766
REMARK  290  A    between atoms: _768  and  _770
REMARK  291  A    between atoms: _770  and  _771
REMARK  292  A    between atoms: _770  and  _773
REMARK  293  A    between atoms: _773  and  _774
REMARK  294  A    between atoms: _780  and  _782
REMARK  295  A    between atoms: _782  and  _783
REMARK  296  A    between atoms: _782  and  _785
REMARK  297  A    between atoms: _785  and  _786
REMARK  298  A    between atoms: _786  and  _787
REMARK                            x       y       z     vdW  Elec       q    Type
REMARK                         _______ _______ _______ _____ _____    ______ ____
ROOT
ATOM      1  O   HOH     1     -10.247 -21.936 -25.650  0.00  0.00    +0.000 OA
ENDROOT
TORSDOF 0
REMARK  Name = ../refined-set-2016/4ca6/4ca6_pocket.pdb
REMARK  298 active torsions:
REMARK  status: ('A' for Active; 'I' for Inactive)
REMARK    1  A    between atoms: _1  and  _3
REMARK    2  A    between atoms: _3  and  _4
REMARK    3  A    between atoms: _3  and  _6
REMARK    4  A    between atoms: _6  and  _7
REMARK    5  A    between atoms: _10  and  _12
REMARK    6  A    between atoms: _12  and  _13
REMARK    7  A    between atoms: _12  and  _15
REMARK    8  A    between atoms: _15  and  _16
REMARK    9  A    between atoms: _18  and  _20
REMARK   10  A    between atoms: _20  and  _21
REMARK   11  A    between atoms: _20  and  _23
REMARK   12  A    between atoms: _23  and  _24
REMARK   13  A    between atoms: _29  and  _30
REMARK   14  A    between atoms: _32  and  _34
REMARK   15  A    between atoms: _34  and  _35
REMARK   16  A    between atoms: _34  and  _37
REMARK   17  A    between atoms: _37  and  _38
REMARK   18  A    between atoms: _48  and  _50
REMARK   19  A    between atoms: _50  and  _51
REMARK   20  A    between atoms: _50  and  _53
REMARK   21  A    between atoms: _53  and  _54
REMARK   22  A    between atoms: _57  and  _59
REMARK   23  A    between atoms: _59  and  _60
REMARK   24  A    between atoms: _59  and  _62
REMARK   25  A    between atoms: _62  and  _63
REMARK   26  A    between atoms: _73  and  _75
REMARK   27  A    between atoms: _75  and  _76
REMARK   28  A    between atoms: _75  and  _78
REMARK   29  A    between atoms: _78  and  _79
REMARK   30  A    between atoms: _79  and  _80
REMARK   31  A    between atoms: _85  and  _87
REMARK   32  A    between atoms: _87  and  _88
REMARK   33  A    between atoms: _87  and  _90
REMARK   34  A    between atoms: _90  and  _91
REMARK   35  A    between atoms: _93  and  _95
REMARK   36  A    between atoms: _95  and  _96
REMARK   37  A    between atoms: _95  and  _98
REMARK   38  A    between atoms: _98  and  _99
REMARK   39  A    between atoms: _99  and  _100
REMARK   40  A    between atoms: _103  and  _105
REMARK   41  A    between atoms: _105  and  _106
REMARK   42  A    between atoms: _105  and  _108
REMARK   43  A    between atoms: _111  and  _113
REMARK   44  A    between atoms: _113  and  _114
REMARK   45  A    between atoms: _113  and  _116
REMARK   46  A    between atoms: _118  and  _120
REMARK   47  A    between atoms: _120  and  _121
REMARK   48  A    between atoms: _120  and  _123
REMARK   49  A    between atoms: _123  and  _124
REMARK   50  A    between atoms: _129  and  _131
REMARK   51  A    between atoms: _131  and  _132
REMARK   52  A    between atoms: _135  and  _137
REMARK   53  A    between atoms: _137  and  _138
REMARK   54  A    between atoms: _137  and  _140
REMARK   55  A    between atoms: _140  and  _141
REMARK   56  A    between atoms: _143  and  _145
REMARK   57  A    between atoms: _145  and  _146
REMARK   58  A    between atoms: _149  and  _151
REMARK   59  A    between atoms: _151  and  _152
REMARK   60  A    between atoms: _151  and  _154
REMARK   61  A    between atoms: _154  and  _155
REMARK   62  A    between atoms: _165  and  _167
REMARK   63  A    between atoms: _167  and  _168
REMARK   64  A    between atoms: _167  and  _170
REMARK   65  A    between atoms: _170  and  _171
REMARK   66  A    between atoms: _174  and  _176
REMARK   67  A    between atoms: _176  and  _177
REMARK   68  A    between atoms: _176  and  _179
REMARK   69  A    between atoms: _179  and  _180
REMARK   70  A    between atoms: _185  and  _186
REMARK   71  A    between atoms: _188  and  _190
REMARK   72  A    between atoms: _190  and  _191
REMARK   73  A    between atoms: _190  and  _193
REMARK   74  A    between atoms: _193  and  _194
REMARK   75  A    between atoms: _194  and  _195
REMARK   76  A    between atoms: _195  and  _196
REMARK   77  A    between atoms: _205  and  _207
REMARK   78  A    between atoms: _207  and  _208
REMARK   79  A    between atoms: _207  and  _210
REMARK   80  A    between atoms: _210  and  _211
REMARK   81  A    between atoms: _214  and  _216
REMARK   82  A    between atoms: _216  and  _217
REMARK   83  A    between atoms: _216  and  _219
REMARK   84  A    between atoms: _219  and  _220
REMARK   85  A    between atoms: _220  and  _221
REMARK   86  A    between atoms: _221  and  _222
REMARK   87  A    between atoms: _222  and  _223
REMARK   88  A    between atoms: _227  and  _229
REMARK   89  A    between atoms: _229  and  _230
REMARK   90  A    between atoms: _229  and  _232
REMARK   91  A    between atoms: _232  and  _233
REMARK   92  A    between atoms: _233  and  _234
REMARK   93  A    between atoms: _239  and  _241
REMARK   94  A    between atoms: _241  and  _242
REMARK   95  A    between atoms: _241  and  _244
REMARK   96  A    between atoms: _244  and  _245
REMARK   97  A    between atoms: _245  and  _246
REMARK   98  A    between atoms: _246  and  _247
REMARK   99  A    between atoms: _256  and  _258
REMARK  100  A    between atoms: _258  and  _259
REMARK  101  A    between atoms: _258  and  _261
REMARK  102  A    between atoms: _261  and  _262
REMARK  103  A    between atoms: _262  and  _263
REMARK  104  A    between atoms: _265  and  _267
REMARK  105  A    between atoms: _267  and  _268
REMARK  106  A    between atoms: _267  and  _270
REMARK  107  A    between atoms: _270  and  _271
REMARK  108  A    between atoms: _274  and  _276
REMARK  109  A    between atoms: _276  and  _277
REMARK  110  A    between atoms: _276  and  _279
REMARK  111  A    between atoms: _279  and  _280
REMARK  112  A    between atoms: _280  and  _281
REMARK  113  A    between atoms: _286  and  _288
REMARK  114  A    between atoms: _288  and  _289
REMARK  115  A    between atoms: _288  and  _291
REMARK  116  A    between atoms: _291  and  _292
REMARK  117  A    between atoms: _295  and  _297
REMARK  118  A    between atoms: _297  and  _298
REMARK  119  A    between atoms: _297  and  _300
REMARK  120  A    between atoms: _300  and  _301
REMARK  121  A    between atoms: _303  and  _305
REMARK  122  A    between atoms: _305  and  _306
REMARK  123  A    between atoms: _305  and  _308
REMARK  124  A    between atoms: _308  and  _309
REMARK  125  A    between atoms: _312  and  _314
REMARK  126  A    between atoms: _314  and  _315
REMARK  127  A    between atoms: _314  and  _317
REMARK  128  A    between atoms: _320  and  _322
REMARK  129  A    between atoms: _322  and  _323
REMARK  130  A    between atoms: _322  and  _325
REMARK  131  A    between atoms: _325  and  _326
REMARK  132  A    between atoms: _331  and  _333
REMARK  133  A    between atoms: _344  and  _347
REMARK  134  A    between atoms: _347  and  _348
REMARK  135  A    between atoms: _348  and  _349
REMARK  136  A    between atoms: _354  and  _357
REMARK  137  A    between atoms: _357  and  _358
REMARK  138  A    between atoms: _358  and  _359
REMARK  139  A    between atoms: _368  and  _369
REMARK  140  A    between atoms: _377  and  _379
REMARK  141  A    between atoms: _379  and  _380
REMARK  142  A    between atoms: _379  and  _382
REMARK  143  A    between atoms: _382  and  _383
REMARK  144  A    between atoms: _386  and  _388
REMARK  145  A    between atoms: _388  and  _389
REMARK  146  A    between atoms: _388  and  _391
REMARK  147  A    between atoms: _391  and  _392
REMARK  148  A    between atoms: _397  and  _398
REMARK  149  A    between atoms: _400  and  _402
REMARK  150  A    between atoms: _402  and  _403
REMARK  151  A    between atoms: _402  and  _405
REMARK  152  A    between atoms: _405  and  _406
REMARK  153  A    between atoms: _411  and  _412
REMARK  154  A    between atoms: _414  and  _416
REMARK  155  A    between atoms: _416  and  _417
REMARK  156  A    between atoms: _416  and  _419
REMARK  157  A    between atoms: _419  and  _420
REMARK  158  A    between atoms: _425  and  _426
REMARK  159  A    between atoms: _428  and  _430
REMARK  160  A    between atoms: _430  and  _431
REMARK  161  A    between atoms: _430  and  _433
REMARK  162  A    between atoms: _433  and  _434
REMARK  163  A    between atoms: _434  and  _435
REMARK  164  A    between atoms: _435  and  _436
REMARK  165  A    between atoms: _445  and  _447
REMARK  166  A    between atoms: _447  and  _448
REMARK  167  A    between atoms: _447  and  _450
REMARK  168  A    between atoms: _450  and  _451
REMARK  169  A    between atoms: _451  and  _452
REMARK  170  A    between atoms: _452  and  _453
REMARK  171  A    between atoms: _462  and  _464
REMARK  172  A    between atoms: _464  and  _465
REMARK  173  A    between atoms: _467  and  _469
REMARK  174  A    between atoms: _469  and  _470
REMARK  175  A    between atoms: _473  and  _475
REMARK  176  A    between atoms: _475  and  _476
REMARK  177  A    between atoms: _475  and  _478
REMARK  178  A    between atoms: _478  and  _479
REMARK  179  A    between atoms: _485  and  _486
REMARK  180  A    between atoms: _491  and  _493
REMARK  181  A    between atoms: _493  and  _494
REMARK  182  A    between atoms: _496  and  _498
REMARK  183  A    between atoms: _498  and  _499
REMARK  184  A    between atoms: _498  and  _501
REMARK  185  A    between atoms: _501  and  _502
REMARK  186  A    between atoms: _508  and  _510
REMARK  187  A    between atoms: _510  and  _511
REMARK  188  A    between atoms: _510  and  _513
REMARK  189  A    between atoms: _513  and  _514
REMARK  190  A    between atoms: _519  and  _521
REMARK  191  A    between atoms: _521  and  _522
REMARK  192  A    between atoms: _521  and  _524
REMARK  193  A    between atoms: _524  and  _525
REMARK  194  A    between atoms: _525  and  _526
REMARK  195  A    between atoms: _526  and  _527
REMARK  196  A    between atoms: _527  and  ZN_792
REMARK  197  A    between atoms: _529  and  _531
REMARK  198  A    between atoms: _531  and  _532
REMARK  199  A    between atoms: _535  and  _537
REMARK  200  A    between atoms: _537  and  _538
REMARK  201  A    between atoms: _540  and  _542
REMARK  202  A    between atoms: _542  and  _543
REMARK  203  A    between atoms: _542  and  _545
REMARK  204  A    between atoms: _545  and  _546
REMARK  205  A    between atoms: _549  and  _551
REMARK  206  A    between atoms: _551  and  _552
REMARK  207  A    between atoms: _551  and  _554
REMARK  208  A    between atoms: _557  and  _559
REMARK  209  A    between atoms: _559  and  _560
REMARK  210  A    between atoms: _563  and  _565
REMARK  211  A    between atoms: _565  and  _566
REMARK  212  A    between atoms: _565  and  _568
REMARK  213  A    between atoms: _568  and  _569
REMARK  214  A    between atoms: _572  and  _574
REMARK  215  A    between atoms: _574  and  _575
REMARK  216  A    between atoms: _574  and  _577
REMARK  217  A    between atoms: _577  and  _578
REMARK  218  A    between atoms: _578  and  _579
REMARK  219  A    between atoms: _582  and  _584
REMARK  220  A    between atoms: _584  and  _585
REMARK  221  A    between atoms: _584  and  _587
REMARK  222  A    between atoms: _587  and  _588
REMARK  223  A    between atoms: _588  and  _589
REMARK  224  A    between atoms: _589  and  _590
REMARK  225  A    between atoms: _590  and  _591
REMARK  226  A    between atoms: _595  and  _597
REMARK  227  A    between atoms: _597  and  _598
REMARK  228  A    between atoms: _597  and  _600
REMARK  229  A    between atoms: _600  and  _601
REMARK  230  A    between atoms: _607  and  _609
REMARK  231  A    between atoms: _609  and  _610
REMARK  232  A    between atoms: _609  and  _612
REMARK  233  A    between atoms: _612  and  _613
REMARK  234  A    between atoms: _619  and  _621
REMARK  235  A    between atoms: _621  and  _622
REMARK  236  A    between atoms: _624  and  _626
REMARK  237  A    between atoms: _626  and  _627
REMARK  238  A    between atoms: _626  and  _629
REMARK  239  A    between atoms: _632  and  _634
REMARK  240  A    between atoms: _634  and  _635
REMARK  241  A    between atoms: _634  and  _637
REMARK  242  A    between atoms: _637  and  _638
REMARK  243  A    between atoms: _638  and  _639
REMARK  244  A    between atoms: _639  and  _640
REMARK  245  A    between atoms: _640  and  _641
REMARK  246  A    between atoms: _645  and  _647
REMARK  247  A    between atoms: _647  and  _648
REMARK  248  A    between atoms: _647  and  _650
REMARK  249  A    between atoms: _650  and  _651
REMARK  250  A    between atoms: _657  and  _659
REMARK  251  A    between atoms: _659  and  _660
REMARK  252  A    between atoms: _659  and  _662
REMARK  253  A    between atoms: _662  and  _663
REMARK  254  A    between atoms: _668  and  _670
REMARK  255  A    between atoms: _670  and  _671
REMARK  256  A    between atoms: _670  and  _673
REMARK  257  A    between atoms: _673  and  _674
REMARK  258  A    between atoms: _679  and  _681
REMARK  259  A    between atoms: _681  and  _682
REMARK  260  A    between atoms: _681  and  _684
REMARK  261  A    between atoms: _687  and  _689
REMARK  262  A    between atoms: _689  and  _690
REMARK  263  A    between atoms: _689  and  _692
REMARK  264  A    between atoms: _692  and  _693
REMARK  265  A    between atoms: _697  and  _698
REMARK  266  A    between atoms: _703  and  _705
REMARK  267  A    between atoms: _705  and  _706
REMARK  268  A    between atoms: _705  and  _708
REMARK  269  A    between atoms: _708  and  _709
REMARK  270  A    between atoms: _714  and  _715
REMARK  271  A    between atoms: _717  and  _719
REMARK  272  A    between atoms: _719  and  _720
REMARK  273  A    between atoms: _719  and  _722
REMARK  274  A    between atoms: _722  and  _723
REMARK  275  A    between atoms: _723  and  _724
REMARK  276  A    between atoms: _724  and  _725
REMARK  277  A    between atoms: _734  and  _736
REMARK  278  A    between atoms: _736  and  _737
REMARK  279  A    between atoms: _736  and  _739
REMARK  280  A    between atoms: _739  and  _740
REMARK  281  A    between atoms: _745  and  _746
REMARK  282  A    between atoms: _748  and  _750
REMARK  283  A    between atoms: _750  and  _751
REMARK  284  A    between atoms: _750  and  _753
REMARK  285  A    between atoms: _753  and  _754
REMARK  286  A    between atoms: _760  and  _762
REMARK  287  A    between atoms: _762  and  _763
REMARK  288  A    between atoms: _762  and  _765
REMARK  289  A    between atoms: _765  and  _766
REMARK  290  A    between atoms: _768  and  _770
REMARK  291  A    between atoms: _770  and  _771
REMARK  292  A    between atoms: _770  and  _773
REMARK  293  A    between atoms: _773  and  _774
REMARK  294  A    between atoms: _780  and  _782
REMARK  295  A    between atoms: _782  and  _783
REMARK  296  A    between atoms: _782  and  _785
REMARK  297  A    between atoms: _785  and  _786
REMARK  298  A    between atoms: _786  and  _787
REMARK                            x       y       z     vdW  Elec       q    Type
REMARK                         _______ _______ _______ _____ _____    ______ ____
ROOT
ATOM      1  O   HOH     1      -9.668 -26.046 -22.022  0.00  0.00    +0.000 OA
ENDROOT
TORSDOF 0
REMARK  Name = ../refined-set-2016/4ca6/4ca6_pocket.pdb
REMARK  298 active torsions:
REMARK  status: ('A' for Active; 'I' for Inactive)
REMARK    1  A    between atoms: _1  and  _3
REMARK    2  A    between atoms: _3  and  _4
REMARK    3  A    between atoms: _3  and  _6
REMARK    4  A    between atoms: _6  and  _7
REMARK    5  A    between atoms: _10  and  _12
REMARK    6  A    between atoms: _12  and  _13
REMARK    7  A    between atoms: _12  and  _15
REMARK    8  A    between atoms: _15  and  _16
REMARK    9  A    between atoms: _18  and  _20
REMARK   10  A    between atoms: _20  and  _21
REMARK   11  A    between atoms: _20  and  _23
REMARK   12  A    between atoms: _23  and  _24
REMARK   13  A    between atoms: _29  and  _30
REMARK   14  A    between atoms: _32  and  _34
REMARK   15  A    between atoms: _34  and  _35
REMARK   16  A    between atoms: _34  and  _37
REMARK   17  A    between atoms: _37  and  _38
REMARK   18  A    between atoms: _48  and  _50
REMARK   19  A    between atoms: _50  and  _51
REMARK   20  A    between atoms: _50  and  _53
REMARK   21  A    between atoms: _53  and  _54
REMARK   22  A    between atoms: _57  and  _59
REMARK   23  A    between atoms: _59  and  _60
REMARK   24  A    between atoms: _59  and  _62
REMARK   25  A    between atoms: _62  and  _63
REMARK   26  A    between atoms: _73  and  _75
REMARK   27  A    between atoms: _75  and  _76
REMARK   28  A    between atoms: _75  and  _78
REMARK   29  A    between atoms: _78  and  _79
REMARK   30  A    between atoms: _79  and  _80
REMARK   31  A    between atoms: _85  and  _87
REMARK   32  A    between atoms: _87  and  _88
REMARK   33  A    between atoms: _87  and  _90
REMARK   34  A    between atoms: _90  and  _91
REMARK   35  A    between atoms: _93  and  _95
REMARK   36  A    between atoms: _95  and  _96
REMARK   37  A    between atoms: _95  and  _98
REMARK   38  A    between atoms: _98  and  _99
REMARK   39  A    between atoms: _99  and  _100
REMARK   40  A    between atoms: _103  and  _105
REMARK   41  A    between atoms: _105  and  _106
REMARK   42  A    between atoms: _105  and  _108
REMARK   43  A    between atoms: _111  and  _113
REMARK   44  A    between atoms: _113  and  _114
REMARK   45  A    between atoms: _113  and  _116
REMARK   46  A    between atoms: _118  and  _120
REMARK   47  A    between atoms: _120  and  _121
REMARK   48  A    between atoms: _120  and  _123
REMARK   49  A    between atoms: _123  and  _124
REMARK   50  A    between atoms: _129  and  _131
REMARK   51  A    between atoms: _131  and  _132
REMARK   52  A    between atoms: _135  and  _137
REMARK   53  A    between atoms: _137  and  _138
REMARK   54  A    between atoms: _137  and  _140
REMARK   55  A    between atoms: _140  and  _141
REMARK   56  A    between atoms: _143  and  _145
REMARK   57  A    between atoms: _145  and  _146
REMARK   58  A    between atoms: _149  and  _151
REMARK   59  A    between atoms: _151  and  _152
REMARK   60  A    between atoms: _151  and  _154
REMARK   61  A    between atoms: _154  and  _155
REMARK   62  A    between atoms: _165  and  _167
REMARK   63  A    between atoms: _167  and  _168
REMARK   64  A    between atoms: _167  and  _170
REMARK   65  A    between atoms: _170  and  _171
REMARK   66  A    between atoms: _174  and  _176
REMARK   67  A    between atoms: _176  and  _177
REMARK   68  A    between atoms: _176  and  _179
REMARK   69  A    between atoms: _179  and  _180
REMARK   70  A    between atoms: _185  and  _186
REMARK   71  A    between atoms: _188  and  _190
REMARK   72  A    between atoms: _190  and  _191
REMARK   73  A    between atoms: _190  and  _193
REMARK   74  A    between atoms: _193  and  _194
REMARK   75  A    between atoms: _194  and  _195
REMARK   76  A    between atoms: _195  and  _196
REMARK   77  A    between atoms: _205  and  _207
REMARK   78  A    between atoms: _207  and  _208
REMARK   79  A    between atoms: _207  and  _210
REMARK   80  A    between atoms: _210  and  _211
REMARK   81  A    between atoms: _214  and  _216
REMARK   82  A    between atoms: _216  and  _217
REMARK   83  A    between atoms: _216  and  _219
REMARK   84  A    between atoms: _219  and  _220
REMARK   85  A    between atoms: _220  and  _221
REMARK   86  A    between atoms: _221  and  _222
REMARK   87  A    between atoms: _222  and  _223
REMARK   88  A    between atoms: _227  and  _229
REMARK   89  A    between atoms: _229  and  _230
REMARK   90  A    between atoms: _229  and  _232
REMARK   91  A    between atoms: _232  and  _233
REMARK   92  A    between atoms: _233  and  _234
REMARK   93  A    between atoms: _239  and  _241
REMARK   94  A    between atoms: _241  and  _242
REMARK   95  A    between atoms: _241  and  _244
REMARK   96  A    between atoms: _244  and  _245
REMARK   97  A    between atoms: _245  and  _246
REMARK   98  A    between atoms: _246  and  _247
REMARK   99  A    between atoms: _256  and  _258
REMARK  100  A    between atoms: _258  and  _259
REMARK  101  A    between atoms: _258  and  _261
REMARK  102  A    between atoms: _261  and  _262
REMARK  103  A    between atoms: _262  and  _263
REMARK  104  A    between atoms: _265  and  _267
REMARK  105  A    between atoms: _267  and  _268
REMARK  106  A    between atoms: _267  and  _270
REMARK  107  A    between atoms: _270  and  _271
REMARK  108  A    between atoms: _274  and  _276
REMARK  109  A    between atoms: _276  and  _277
REMARK  110  A    between atoms: _276  and  _279
REMARK  111  A    between atoms: _279  and  _280
REMARK  112  A    between atoms: _280  and  _281
REMARK  113  A    between atoms: _286  and  _288
REMARK  114  A    between atoms: _288  and  _289
REMARK  115  A    between atoms: _288  and  _291
REMARK  116  A    between atoms: _291  and  _292
REMARK  117  A    between atoms: _295  and  _297
REMARK  118  A    between atoms: _297  and  _298
REMARK  119  A    between atoms: _297  and  _300
REMARK  120  A    between atoms: _300  and  _301
REMARK  121  A    between atoms: _303  and  _305
REMARK  122  A    between atoms: _305  and  _306
REMARK  123  A    between atoms: _305  and  _308
REMARK  124  A    between atoms: _308  and  _309
REMARK  125  A    between atoms: _312  and  _314
REMARK  126  A    between atoms: _314  and  _315
REMARK  127  A    between atoms: _314  and  _317
REMARK  128  A    between atoms: _320  and  _322
REMARK  129  A    between atoms: _322  and  _323
REMARK  130  A    between atoms: _322  and  _325
REMARK  131  A    between atoms: _325  and  _326
REMARK  132  A    between atoms: _331  and  _333
REMARK  133  A    between atoms: _344  and  _347
REMARK  134  A    between atoms: _347  and  _348
REMARK  135  A    between atoms: _348  and  _349
REMARK  136  A    between atoms: _354  and  _357
REMARK  137  A    between atoms: _357  and  _358
REMARK  138  A    between atoms: _358  and  _359
REMARK  139  A    between atoms: _368  and  _369
REMARK  140  A    between atoms: _377  and  _379
REMARK  141  A    between atoms: _379  and  _380
REMARK  142  A    between atoms: _379  and  _382
REMARK  143  A    between atoms: _382  and  _383
REMARK  144  A    between atoms: _386  and  _388
REMARK  145  A    between atoms: _388  and  _389
REMARK  146  A    between atoms: _388  and  _391
REMARK  147  A    between atoms: _391  and  _392
REMARK  148  A    between atoms: _397  and  _398
REMARK  149  A    between atoms: _400  and  _402
REMARK  150  A    between atoms: _402  and  _403
REMARK  151  A    between atoms: _402  and  _405
REMARK  152  A    between atoms: _405  and  _406
REMARK  153  A    between atoms: _411  and  _412
REMARK  154  A    between atoms: _414  and  _416
REMARK  155  A    between atoms: _416  and  _417
REMARK  156  A    between atoms: _416  and  _419
REMARK  157  A    between atoms: _419  and  _420
REMARK  158  A    between atoms: _425  and  _426
REMARK  159  A    between atoms: _428  and  _430
REMARK  160  A    between atoms: _430  and  _431
REMARK  161  A    between atoms: _430  and  _433
REMARK  162  A    between atoms: _433  and  _434
REMARK  163  A    between atoms: _434  and  _435
REMARK  164  A    between atoms: _435  and  _436
REMARK  165  A    between atoms: _445  and  _447
REMARK  166  A    between atoms: _447  and  _448
REMARK  167  A    between atoms: _447  and  _450
REMARK  168  A    between atoms: _450  and  _451
REMARK  169  A    between atoms: _451  and  _452
REMARK  170  A    between atoms: _452  and  _453
REMARK  171  A    between atoms: _462  and  _464
REMARK  172  A    between atoms: _464  and  _465
REMARK  173  A    between atoms: _467  and  _469
REMARK  174  A    between atoms: _469  and  _470
REMARK  175  A    between atoms: _473  and  _475
REMARK  176  A    between atoms: _475  and  _476
REMARK  177  A    between atoms: _475  and  _478
REMARK  178  A    between atoms: _478  and  _479
REMARK  179  A    between atoms: _485  and  _486
REMARK  180  A    between atoms: _491  and  _493
REMARK  181  A    between atoms: _493  and  _494
REMARK  182  A    between atoms: _496  and  _498
REMARK  183  A    between atoms: _498  and  _499
REMARK  184  A    between atoms: _498  and  _501
REMARK  185  A    between atoms: _501  and  _502
REMARK  186  A    between atoms: _508  and  _510
REMARK  187  A    between atoms: _510  and  _511
REMARK  188  A    between atoms: _510  and  _513
REMARK  189  A    between atoms: _513  and  _514
REMARK  190  A    between atoms: _519  and  _521
REMARK  191  A    between atoms: _521  and  _522
REMARK  192  A    between atoms: _521  and  _524
REMARK  193  A    between atoms: _524  and  _525
REMARK  194  A    between atoms: _525  and  _526
REMARK  195  A    between atoms: _526  and  _527
REMARK  196  A    between atoms: _527  and  ZN_792
REMARK  197  A    between atoms: _529  and  _531
REMARK  198  A    between atoms: _531  and  _532
REMARK  199  A    between atoms: _535  and  _537
REMARK  200  A    between atoms: _537  and  _538
REMARK  201  A    between atoms: _540  and  _542
REMARK  202  A    between atoms: _542  and  _543
REMARK  203  A    between atoms: _542  and  _545
REMARK  204  A    between atoms: _545  and  _546
REMARK  205  A    between atoms: _549  and  _551
REMARK  206  A    between atoms: _551  and  _552
REMARK  207  A    between atoms: _551  and  _554
REMARK  208  A    between atoms: _557  and  _559
REMARK  209  A    between atoms: _559  and  _560
REMARK  210  A    between atoms: _563  and  _565
REMARK  211  A    between atoms: _565  and  _566
REMARK  212  A    between atoms: _565  and  _568
REMARK  213  A    between atoms: _568  and  _569
REMARK  214  A    between atoms: _572  and  _574
REMARK  215  A    between atoms: _574  and  _575
REMARK  216  A    between atoms: _574  and  _577
REMARK  217  A    between atoms: _577  and  _578
REMARK  218  A    between atoms: _578  and  _579
REMARK  219  A    between atoms: _582  and  _584
REMARK  220  A    between atoms: _584  and  _585
REMARK  221  A    between atoms: _584  and  _587
REMARK  222  A    between atoms: _587  and  _588
REMARK  223  A    between atoms: _588  and  _589
REMARK  224  A    between atoms: _589  and  _590
REMARK  225  A    between atoms: _590  and  _591
REMARK  226  A    between atoms: _595  and  _597
REMARK  227  A    between atoms: _597  and  _598
REMARK  228  A    between atoms: _597  and  _600
REMARK  229  A    between atoms: _600  and  _601
REMARK  230  A    between atoms: _607  and  _609
REMARK  231  A    between atoms: _609  and  _610
REMARK  232  A    between atoms: _609  and  _612
REMARK  233  A    between atoms: _612  and  _613
REMARK  234  A    between atoms: _619  and  _621
REMARK  235  A    between atoms: _621  and  _622
REMARK  236  A    between atoms: _624  and  _626
REMARK  237  A    between atoms: _626  and  _627
REMARK  238  A    between atoms: _626  and  _629
REMARK  239  A    between atoms: _632  and  _634
REMARK  240  A    between atoms: _634  and  _635
REMARK  241  A    between atoms: _634  and  _637
REMARK  242  A    between atoms: _637  and  _638
REMARK  243  A    between atoms: _638  and  _639
REMARK  244  A    between atoms: _639  and  _640
REMARK  245  A    between atoms: _640  and  _641
REMARK  246  A    between atoms: _645  and  _647
REMARK  247  A    between atoms: _647  and  _648
REMARK  248  A    between atoms: _647  and  _650
REMARK  249  A    between atoms: _650  and  _651
REMARK  250  A    between atoms: _657  and  _659
REMARK  251  A    between atoms: _659  and  _660
REMARK  252  A    between atoms: _659  and  _662
REMARK  253  A    between atoms: _662  and  _663
REMARK  254  A    between atoms: _668  and  _670
REMARK  255  A    between atoms: _670  and  _671
REMARK  256  A    between atoms: _670  and  _673
REMARK  257  A    between atoms: _673  and  _674
REMARK  258  A    between atoms: _679  and  _681
REMARK  259  A    between atoms: _681  and  _682
REMARK  260  A    between atoms: _681  and  _684
REMARK  261  A    between atoms: _687  and  _689
REMARK  262  A    between atoms: _689  and  _690
REMARK  263  A    between atoms: _689  and  _692
REMARK  264  A    between atoms: _692  and  _693
REMARK  265  A    between atoms: _697  and  _698
REMARK  266  A    between atoms: _703  and  _705
REMARK  267  A    between atoms: _705  and  _706
REMARK  268  A    between atoms: _705  and  _708
REMARK  269  A    between atoms: _708  and  _709
REMARK  270  A    between atoms: _714  and  _715
REMARK  271  A    between atoms: _717  and  _719
REMARK  272  A    between atoms: _719  and  _720
REMARK  273  A    between atoms: _719  and  _722
REMARK  274  A    between atoms: _722  and  _723
REMARK  275  A    between atoms: _723  and  _724
REMARK  276  A    between atoms: _724  and  _725
REMARK  277  A    between atoms: _734  and  _736
REMARK  278  A    between atoms: _736  and  _737
REMARK  279  A    between atoms: _736  and  _739
REMARK  280  A    between atoms: _739  and  _740
REMARK  281  A    between atoms: _745  and  _746
REMARK  282  A    between atoms: _748  and  _750
REMARK  283  A    between atoms: _750  and  _751
REMARK  284  A    between atoms: _750  and  _753
REMARK  285  A    between atoms: _753  and  _754
REMARK  286  A    between atoms: _760  and  _762
REMARK  287  A    between atoms: _762  and  _763
REMARK  288  A    between atoms: _762  and  _765
REMARK  289  A    between atoms: _765  and  _766
REMARK  290  A    between atoms: _768  and  _770
REMARK  291  A    between atoms: _770  and  _771
REMARK  292  A    between atoms: _770  and  _773
REMARK  293  A    between atoms: _773  and  _774
REMARK  294  A    between atoms: _780  and  _782
REMARK  295  A    between atoms: _782  and  _783
REMARK  296  A    between atoms: _782  and  _785
REMARK  297  A    between atoms: _785  and  _786
REMARK  298  A    between atoms: _786  and  _787
REMARK                            x       y       z     vdW  Elec       q    Type
REMARK                         _______ _______ _______ _____ _____    ______ ____
ROOT
ATOM      1  O   HOH     1     -10.002 -23.905 -19.207  0.00  0.00    +0.000 OA
ENDROOT
TORSDOF 0
REMARK  Name = ../refined-set-2016/4ca6/4ca6_pocket.pdb
REMARK  298 active torsions:
REMARK  status: ('A' for Active; 'I' for Inactive)
REMARK    1  A    between atoms: _1  and  _3
REMARK    2  A    between atoms: _3  and  _4
REMARK    3  A    between atoms: _3  and  _6
REMARK    4  A    between atoms: _6  and  _7
REMARK    5  A    between atoms: _10  and  _12
REMARK    6  A    between atoms: _12  and  _13
REMARK    7  A    between atoms: _12  and  _15
REMARK    8  A    between atoms: _15  and  _16
REMARK    9  A    between atoms: _18  and  _20
REMARK   10  A    between atoms: _20  and  _21
REMARK   11  A    between atoms: _20  and  _23
REMARK   12  A    between atoms: _23  and  _24
REMARK   13  A    between atoms: _29  and  _30
REMARK   14  A    between atoms: _32  and  _34
REMARK   15  A    between atoms: _34  and  _35
REMARK   16  A    between atoms: _34  and  _37
REMARK   17  A    between atoms: _37  and  _38
REMARK   18  A    between atoms: _48  and  _50
REMARK   19  A    between atoms: _50  and  _51
REMARK   20  A    between atoms: _50  and  _53
REMARK   21  A    between atoms: _53  and  _54
REMARK   22  A    between atoms: _57  and  _59
REMARK   23  A    between atoms: _59  and  _60
REMARK   24  A    between atoms: _59  and  _62
REMARK   25  A    between atoms: _62  and  _63
REMARK   26  A    between atoms: _73  and  _75
REMARK   27  A    between atoms: _75  and  _76
REMARK   28  A    between atoms: _75  and  _78
REMARK   29  A    between atoms: _78  and  _79
REMARK   30  A    between atoms: _79  and  _80
REMARK   31  A    between atoms: _85  and  _87
REMARK   32  A    between atoms: _87  and  _88
REMARK   33  A    between atoms: _87  and  _90
REMARK   34  A    between atoms: _90  and  _91
REMARK   35  A    between atoms: _93  and  _95
REMARK   36  A    between atoms: _95  and  _96
REMARK   37  A    between atoms: _95  and  _98
REMARK   38  A    between atoms: _98  and  _99
REMARK   39  A    between atoms: _99  and  _100
REMARK   40  A    between atoms: _103  and  _105
REMARK   41  A    between atoms: _105  and  _106
REMARK   42  A    between atoms: _105  and  _108
REMARK   43  A    between atoms: _111  and  _113
REMARK   44  A    between atoms: _113  and  _114
REMARK   45  A    between atoms: _113  and  _116
REMARK   46  A    between atoms: _118  and  _120
REMARK   47  A    between atoms: _120  and  _121
REMARK   48  A    between atoms: _120  and  _123
REMARK   49  A    between atoms: _123  and  _124
REMARK   50  A    between atoms: _129  and  _131
REMARK   51  A    between atoms: _131  and  _132
REMARK   52  A    between atoms: _135  and  _137
REMARK   53  A    between atoms: _137  and  _138
REMARK   54  A    between atoms: _137  and  _140
REMARK   55  A    between atoms: _140  and  _141
REMARK   56  A    between atoms: _143  and  _145
REMARK   57  A    between atoms: _145  and  _146
REMARK   58  A    between atoms: _149  and  _151
REMARK   59  A    between atoms: _151  and  _152
REMARK   60  A    between atoms: _151  and  _154
REMARK   61  A    between atoms: _154  and  _155
REMARK   62  A    between atoms: _165  and  _167
REMARK   63  A    between atoms: _167  and  _168
REMARK   64  A    between atoms: _167  and  _170
REMARK   65  A    between atoms: _170  and  _171
REMARK   66  A    between atoms: _174  and  _176
REMARK   67  A    between atoms: _176  and  _177
REMARK   68  A    between atoms: _176  and  _179
REMARK   69  A    between atoms: _179  and  _180
REMARK   70  A    between atoms: _185  and  _186
REMARK   71  A    between atoms: _188  and  _190
REMARK   72  A    between atoms: _190  and  _191
REMARK   73  A    between atoms: _190  and  _193
REMARK   74  A    between atoms: _193  and  _194
REMARK   75  A    between atoms: _194  and  _195
REMARK   76  A    between atoms: _195  and  _196
REMARK   77  A    between atoms: _205  and  _207
REMARK   78  A    between atoms: _207  and  _208
REMARK   79  A    between atoms: _207  and  _210
REMARK   80  A    between atoms: _210  and  _211
REMARK   81  A    between atoms: _214  and  _216
REMARK   82  A    between atoms: _216  and  _217
REMARK   83  A    between atoms: _216  and  _219
REMARK   84  A    between atoms: _219  and  _220
REMARK   85  A    between atoms: _220  and  _221
REMARK   86  A    between atoms: _221  and  _222
REMARK   87  A    between atoms: _222  and  _223
REMARK   88  A    between atoms: _227  and  _229
REMARK   89  A    between atoms: _229  and  _230
REMARK   90  A    between atoms: _229  and  _232
REMARK   91  A    between atoms: _232  and  _233
REMARK   92  A    between atoms: _233  and  _234
REMARK   93  A    between atoms: _239  and  _241
REMARK   94  A    between atoms: _241  and  _242
REMARK   95  A    between atoms: _241  and  _244
REMARK   96  A    between atoms: _244  and  _245
REMARK   97  A    between atoms: _245  and  _246
REMARK   98  A    between atoms: _246  and  _247
REMARK   99  A    between atoms: _256  and  _258
REMARK  100  A    between atoms: _258  and  _259
REMARK  101  A    between atoms: _258  and  _261
REMARK  102  A    between atoms: _261  and  _262
REMARK  103  A    between atoms: _262  and  _263
REMARK  104  A    between atoms: _265  and  _267
REMARK  105  A    between atoms: _267  and  _268
REMARK  106  A    between atoms: _267  and  _270
REMARK  107  A    between atoms: _270  and  _271
REMARK  108  A    between atoms: _274  and  _276
REMARK  109  A    between atoms: _276  and  _277
REMARK  110  A    between atoms: _276  and  _279
REMARK  111  A    between atoms: _279  and  _280
REMARK  112  A    between atoms: _280  and  _281
REMARK  113  A    between atoms: _286  and  _288
REMARK  114  A    between atoms: _288  and  _289
REMARK  115  A    between atoms: _288  and  _291
REMARK  116  A    between atoms: _291  and  _292
REMARK  117  A    between atoms: _295  and  _297
REMARK  118  A    between atoms: _297  and  _298
REMARK  119  A    between atoms: _297  and  _300
REMARK  120  A    between atoms: _300  and  _301
REMARK  121  A    between atoms: _303  and  _305
REMARK  122  A    between atoms: _305  and  _306
REMARK  123  A    between atoms: _305  and  _308
REMARK  124  A    between atoms: _308  and  _309
REMARK  125  A    between atoms: _312  and  _314
REMARK  126  A    between atoms: _314  and  _315
REMARK  127  A    between atoms: _314  and  _317
REMARK  128  A    between atoms: _320  and  _322
REMARK  129  A    between atoms: _322  and  _323
REMARK  130  A    between atoms: _322  and  _325
REMARK  131  A    between atoms: _325  and  _326
REMARK  132  A    between atoms: _331  and  _333
REMARK  133  A    between atoms: _344  and  _347
REMARK  134  A    between atoms: _347  and  _348
REMARK  135  A    between atoms: _348  and  _349
REMARK  136  A    between atoms: _354  and  _357
REMARK  137  A    between atoms: _357  and  _358
REMARK  138  A    between atoms: _358  and  _359
REMARK  139  A    between atoms: _368  and  _369
REMARK  140  A    between atoms: _377  and  _379
REMARK  141  A    between atoms: _379  and  _380
REMARK  142  A    between atoms: _379  and  _382
REMARK  143  A    between atoms: _382  and  _383
REMARK  144  A    between atoms: _386  and  _388
REMARK  145  A    between atoms: _388  and  _389
REMARK  146  A    between atoms: _388  and  _391
REMARK  147  A    between atoms: _391  and  _392
REMARK  148  A    between atoms: _397  and  _398
REMARK  149  A    between atoms: _400  and  _402
REMARK  150  A    between atoms: _402  and  _403
REMARK  151  A    between atoms: _402  and  _405
REMARK  152  A    between atoms: _405  and  _406
REMARK  153  A    between atoms: _411  and  _412
REMARK  154  A    between atoms: _414  and  _416
REMARK  155  A    between atoms: _416  and  _417
REMARK  156  A    between atoms: _416  and  _419
REMARK  157  A    between atoms: _419  and  _420
REMARK  158  A    between atoms: _425  and  _426
REMARK  159  A    between atoms: _428  and  _430
REMARK  160  A    between atoms: _430  and  _431
REMARK  161  A    between atoms: _430  and  _433
REMARK  162  A    between atoms: _433  and  _434
REMARK  163  A    between atoms: _434  and  _435
REMARK  164  A    between atoms: _435  and  _436
REMARK  165  A    between atoms: _445  and  _447
REMARK  166  A    between atoms: _447  and  _448
REMARK  167  A    between atoms: _447  and  _450
REMARK  168  A    between atoms: _450  and  _451
REMARK  169  A    between atoms: _451  and  _452
REMARK  170  A    between atoms: _452  and  _453
REMARK  171  A    between atoms: _462  and  _464
REMARK  172  A    between atoms: _464  and  _465
REMARK  173  A    between atoms: _467  and  _469
REMARK  174  A    between atoms: _469  and  _470
REMARK  175  A    between atoms: _473  and  _475
REMARK  176  A    between atoms: _475  and  _476
REMARK  177  A    between atoms: _475  and  _478
REMARK  178  A    between atoms: _478  and  _479
REMARK  179  A    between atoms: _485  and  _486
REMARK  180  A    between atoms: _491  and  _493
REMARK  181  A    between atoms: _493  and  _494
REMARK  182  A    between atoms: _496  and  _498
REMARK  183  A    between atoms: _498  and  _499
REMARK  184  A    between atoms: _498  and  _501
REMARK  185  A    between atoms: _501  and  _502
REMARK  186  A    between atoms: _508  and  _510
REMARK  187  A    between atoms: _510  and  _511
REMARK  188  A    between atoms: _510  and  _513
REMARK  189  A    between atoms: _513  and  _514
REMARK  190  A    between atoms: _519  and  _521
REMARK  191  A    between atoms: _521  and  _522
REMARK  192  A    between atoms: _521  and  _524
REMARK  193  A    between atoms: _524  and  _525
REMARK  194  A    between atoms: _525  and  _526
REMARK  195  A    between atoms: _526  and  _527
REMARK  196  A    between atoms: _527  and  ZN_792
REMARK  197  A    between atoms: _529  and  _531
REMARK  198  A    between atoms: _531  and  _532
REMARK  199  A    between atoms: _535  and  _537
REMARK  200  A    between atoms: _537  and  _538
REMARK  201  A    between atoms: _540  and  _542
REMARK  202  A    between atoms: _542  and  _543
REMARK  203  A    between atoms: _542  and  _545
REMARK  204  A    between atoms: _545  and  _546
REMARK  205  A    between atoms: _549  and  _551
REMARK  206  A    between atoms: _551  and  _552
REMARK  207  A    between atoms: _551  and  _554
REMARK  208  A    between atoms: _557  and  _559
REMARK  209  A    between atoms: _559  and  _560
REMARK  210  A    between atoms: _563  and  _565
REMARK  211  A    between atoms: _565  and  _566
REMARK  212  A    between atoms: _565  and  _568
REMARK  213  A    between atoms: _568  and  _569
REMARK  214  A    between atoms: _572  and  _574
REMARK  215  A    between atoms: _574  and  _575
REMARK  216  A    between atoms: _574  and  _577
REMARK  217  A    between atoms: _577  and  _578
REMARK  218  A    between atoms: _578  and  _579
REMARK  219  A    between atoms: _582  and  _584
REMARK  220  A    between atoms: _584  and  _585
REMARK  221  A    between atoms: _584  and  _587
REMARK  222  A    between atoms: _587  and  _588
REMARK  223  A    between atoms: _588  and  _589
REMARK  224  A    between atoms: _589  and  _590
REMARK  225  A    between atoms: _590  and  _591
REMARK  226  A    between atoms: _595  and  _597
REMARK  227  A    between atoms: _597  and  _598
REMARK  228  A    between atoms: _597  and  _600
REMARK  229  A    between atoms: _600  and  _601
REMARK  230  A    between atoms: _607  and  _609
REMARK  231  A    between atoms: _609  and  _610
REMARK  232  A    between atoms: _609  and  _612
REMARK  233  A    between atoms: _612  and  _613
REMARK  234  A    between atoms: _619  and  _621
REMARK  235  A    between atoms: _621  and  _622
REMARK  236  A    between atoms: _624  and  _626
REMARK  237  A    between atoms: _626  and  _627
REMARK  238  A    between atoms: _626  and  _629
REMARK  239  A    between atoms: _632  and  _634
REMARK  240  A    between atoms: _634  and  _635
REMARK  241  A    between atoms: _634  and  _637
REMARK  242  A    between atoms: _637  and  _638
REMARK  243  A    between atoms: _638  and  _639
REMARK  244  A    between atoms: _639  and  _640
REMARK  245  A    between atoms: _640  and  _641
REMARK  246  A    between atoms: _645  and  _647
REMARK  247  A    between atoms: _647  and  _648
REMARK  248  A    between atoms: _647  and  _650
REMARK  249  A    between atoms: _650  and  _651
REMARK  250  A    between atoms: _657  and  _659
REMARK  251  A    between atoms: _659  and  _660
REMARK  252  A    between atoms: _659  and  _662
REMARK  253  A    between atoms: _662  and  _663
REMARK  254  A    between atoms: _668  and  _670
REMARK  255  A    between atoms: _670  and  _671
REMARK  256  A    between atoms: _670  and  _673
REMARK  257  A    between atoms: _673  and  _674
REMARK  258  A    between atoms: _679  and  _681
REMARK  259  A    between atoms: _681  and  _682
REMARK  260  A    between atoms: _681  and  _684
REMARK  261  A    between atoms: _687  and  _689
REMARK  262  A    between atoms: _689  and  _690
REMARK  263  A    between atoms: _689  and  _692
REMARK  264  A    between atoms: _692  and  _693
REMARK  265  A    between atoms: _697  and  _698
REMARK  266  A    between atoms: _703  and  _705
REMARK  267  A    between atoms: _705  and  _706
REMARK  268  A    between atoms: _705  and  _708
REMARK  269  A    between atoms: _708  and  _709
REMARK  270  A    between atoms: _714  and  _715
REMARK  271  A    between atoms: _717  and  _719
REMARK  272  A    between atoms: _719  and  _720
REMARK  273  A    between atoms: _719  and  _722
REMARK  274  A    between atoms: _722  and  _723
REMARK  275  A    between atoms: _723  and  _724
REMARK  276  A    between atoms: _724  and  _725
REMARK  277  A    between atoms: _734  and  _736
REMARK  278  A    between atoms: _736  and  _737
REMARK  279  A    between atoms: _736  and  _739
REMARK  280  A    between atoms: _739  and  _740
REMARK  281  A    between atoms: _745  and  _746
REMARK  282  A    between atoms: _748  and  _750
REMARK  283  A    between atoms: _750  and  _751
REMARK  284  A    between atoms: _750  and  _753
REMARK  285  A    between atoms: _753  and  _754
REMARK  286  A    between atoms: _760  and  _762
REMARK  287  A    between atoms: _762  and  _763
REMARK  288  A    between atoms: _762  and  _765
REMARK  289  A    between atoms: _765  and  _766
REMARK  290  A    between atoms: _768  and  _770
REMARK  291  A    between atoms: _770  and  _771
REMARK  292  A    between atoms: _770  and  _773
REMARK  293  A    between atoms: _773  and  _774
REMARK  294  A    between atoms: _780  and  _782
REMARK  295  A    between atoms: _782  and  _783
REMARK  296  A    between atoms: _782  and  _785
REMARK  297  A    between atoms: _785  and  _786
REMARK  298  A    between atoms: _786  and  _787
REMARK                            x       y       z     vdW  Elec       q    Type
REMARK                         _______ _______ _______ _____ _____    ______ ____
ROOT
ATOM      1  O   HOH     1      11.138 -11.794 -28.135  0.00  0.00    +0.000 OA
ENDROOT
TORSDOF 0
REMARK  Name = ../refined-set-2016/4ca6/4ca6_pocket.pdb
REMARK  298 active torsions:
REMARK  status: ('A' for Active; 'I' for Inactive)
REMARK    1  A    between atoms: _1  and  _3
REMARK    2  A    between atoms: _3  and  _4
REMARK    3  A    between atoms: _3  and  _6
REMARK    4  A    between atoms: _6  and  _7
REMARK    5  A    between atoms: _10  and  _12
REMARK    6  A    between atoms: _12  and  _13
REMARK    7  A    between atoms: _12  and  _15
REMARK    8  A    between atoms: _15  and  _16
REMARK    9  A    between atoms: _18  and  _20
REMARK   10  A    between atoms: _20  and  _21
REMARK   11  A    between atoms: _20  and  _23
REMARK   12  A    between atoms: _23  and  _24
REMARK   13  A    between atoms: _29  and  _30
REMARK   14  A    between atoms: _32  and  _34
REMARK   15  A    between atoms: _34  and  _35
REMARK   16  A    between atoms: _34  and  _37
REMARK   17  A    between atoms: _37  and  _38
REMARK   18  A    between atoms: _48  and  _50
REMARK   19  A    between atoms: _50  and  _51
REMARK   20  A    between atoms: _50  and  _53
REMARK   21  A    between atoms: _53  and  _54
REMARK   22  A    between atoms: _57  and  _59
REMARK   23  A    between atoms: _59  and  _60
REMARK   24  A    between atoms: _59  and  _62
REMARK   25  A    between atoms: _62  and  _63
REMARK   26  A    between atoms: _73  and  _75
REMARK   27  A    between atoms: _75  and  _76
REMARK   28  A    between atoms: _75  and  _78
REMARK   29  A    between atoms: _78  and  _79
REMARK   30  A    between atoms: _79  and  _80
REMARK   31  A    between atoms: _85  and  _87
REMARK   32  A    between atoms: _87  and  _88
REMARK   33  A    between atoms: _87  and  _90
REMARK   34  A    between atoms: _90  and  _91
REMARK   35  A    between atoms: _93  and  _95
REMARK   36  A    between atoms: _95  and  _96
REMARK   37  A    between atoms: _95  and  _98
REMARK   38  A    between atoms: _98  and  _99
REMARK   39  A    between atoms: _99  and  _100
REMARK   40  A    between atoms: _103  and  _105
REMARK   41  A    between atoms: _105  and  _106
REMARK   42  A    between atoms: _105  and  _108
REMARK   43  A    between atoms: _111  and  _113
REMARK   44  A    between atoms: _113  and  _114
REMARK   45  A    between atoms: _113  and  _116
REMARK   46  A    between atoms: _118  and  _120
REMARK   47  A    between atoms: _120  and  _121
REMARK   48  A    between atoms: _120  and  _123
REMARK   49  A    between atoms: _123  and  _124
REMARK   50  A    between atoms: _129  and  _131
REMARK   51  A    between atoms: _131  and  _132
REMARK   52  A    between atoms: _135  and  _137
REMARK   53  A    between atoms: _137  and  _138
REMARK   54  A    between atoms: _137  and  _140
REMARK   55  A    between atoms: _140  and  _141
REMARK   56  A    between atoms: _143  and  _145
REMARK   57  A    between atoms: _145  and  _146
REMARK   58  A    between atoms: _149  and  _151
REMARK   59  A    between atoms: _151  and  _152
REMARK   60  A    between atoms: _151  and  _154
REMARK   61  A    between atoms: _154  and  _155
REMARK   62  A    between atoms: _165  and  _167
REMARK   63  A    between atoms: _167  and  _168
REMARK   64  A    between atoms: _167  and  _170
REMARK   65  A    between atoms: _170  and  _171
REMARK   66  A    between atoms: _174  and  _176
REMARK   67  A    between atoms: _176  and  _177
REMARK   68  A    between atoms: _176  and  _179
REMARK   69  A    between atoms: _179  and  _180
REMARK   70  A    between atoms: _185  and  _186
REMARK   71  A    between atoms: _188  and  _190
REMARK   72  A    between atoms: _190  and  _191
REMARK   73  A    between atoms: _190  and  _193
REMARK   74  A    between atoms: _193  and  _194
REMARK   75  A    between atoms: _194  and  _195
REMARK   76  A    between atoms: _195  and  _196
REMARK   77  A    between atoms: _205  and  _207
REMARK   78  A    between atoms: _207  and  _208
REMARK   79  A    between atoms: _207  and  _210
REMARK   80  A    between atoms: _210  and  _211
REMARK   81  A    between atoms: _214  and  _216
REMARK   82  A    between atoms: _216  and  _217
REMARK   83  A    between atoms: _216  and  _219
REMARK   84  A    between atoms: _219  and  _220
REMARK   85  A    between atoms: _220  and  _221
REMARK   86  A    between atoms: _221  and  _222
REMARK   87  A    between atoms: _222  and  _223
REMARK   88  A    between atoms: _227  and  _229
REMARK   89  A    between atoms: _229  and  _230
REMARK   90  A    between atoms: _229  and  _232
REMARK   91  A    between atoms: _232  and  _233
REMARK   92  A    between atoms: _233  and  _234
REMARK   93  A    between atoms: _239  and  _241
REMARK   94  A    between atoms: _241  and  _242
REMARK   95  A    between atoms: _241  and  _244
REMARK   96  A    between atoms: _244  and  _245
REMARK   97  A    between atoms: _245  and  _246
REMARK   98  A    between atoms: _246  and  _247
REMARK   99  A    between atoms: _256  and  _258
REMARK  100  A    between atoms: _258  and  _259
REMARK  101  A    between atoms: _258  and  _261
REMARK  102  A    between atoms: _261  and  _262
REMARK  103  A    between atoms: _262  and  _263
REMARK  104  A    between atoms: _265  and  _267
REMARK  105  A    between atoms: _267  and  _268
REMARK  106  A    between atoms: _267  and  _270
REMARK  107  A    between atoms: _270  and  _271
REMARK  108  A    between atoms: _274  and  _276
REMARK  109  A    between atoms: _276  and  _277
REMARK  110  A    between atoms: _276  and  _279
REMARK  111  A    between atoms: _279  and  _280
REMARK  112  A    between atoms: _280  and  _281
REMARK  113  A    between atoms: _286  and  _288
REMARK  114  A    between atoms: _288  and  _289
REMARK  115  A    between atoms: _288  and  _291
REMARK  116  A    between atoms: _291  and  _292
REMARK  117  A    between atoms: _295  and  _297
REMARK  118  A    between atoms: _297  and  _298
REMARK  119  A    between atoms: _297  and  _300
REMARK  120  A    between atoms: _300  and  _301
REMARK  121  A    between atoms: _303  and  _305
REMARK  122  A    between atoms: _305  and  _306
REMARK  123  A    between atoms: _305  and  _308
REMARK  124  A    between atoms: _308  and  _309
REMARK  125  A    between atoms: _312  and  _314
REMARK  126  A    between atoms: _314  and  _315
REMARK  127  A    between atoms: _314  and  _317
REMARK  128  A    between atoms: _320  and  _322
REMARK  129  A    between atoms: _322  and  _323
REMARK  130  A    between atoms: _322  and  _325
REMARK  131  A    between atoms: _325  and  _326
REMARK  132  A    between atoms: _331  and  _333
REMARK  133  A    between atoms: _344  and  _347
REMARK  134  A    between atoms: _347  and  _348
REMARK  135  A    between atoms: _348  and  _349
REMARK  136  A    between atoms: _354  and  _357
REMARK  137  A    between atoms: _357  and  _358
REMARK  138  A    between atoms: _358  and  _359
REMARK  139  A    between atoms: _368  and  _369
REMARK  140  A    between atoms: _377  and  _379
REMARK  141  A    between atoms: _379  and  _380
REMARK  142  A    between atoms: _379  and  _382
REMARK  143  A    between atoms: _382  and  _383
REMARK  144  A    between atoms: _386  and  _388
REMARK  145  A    between atoms: _388  and  _389
REMARK  146  A    between atoms: _388  and  _391
REMARK  147  A    between atoms: _391  and  _392
REMARK  148  A    between atoms: _397  and  _398
REMARK  149  A    between atoms: _400  and  _402
REMARK  150  A    between atoms: _402  and  _403
REMARK  151  A    between atoms: _402  and  _405
REMARK  152  A    between atoms: _405  and  _406
REMARK  153  A    between atoms: _411  and  _412
REMARK  154  A    between atoms: _414  and  _416
REMARK  155  A    between atoms: _416  and  _417
REMARK  156  A    between atoms: _416  and  _419
REMARK  157  A    between atoms: _419  and  _420
REMARK  158  A    between atoms: _425  and  _426
REMARK  159  A    between atoms: _428  and  _430
REMARK  160  A    between atoms: _430  and  _431
REMARK  161  A    between atoms: _430  and  _433
REMARK  162  A    between atoms: _433  and  _434
REMARK  163  A    between atoms: _434  and  _435
REMARK  164  A    between atoms: _435  and  _436
REMARK  165  A    between atoms: _445  and  _447
REMARK  166  A    between atoms: _447  and  _448
REMARK  167  A    between atoms: _447  and  _450
REMARK  168  A    between atoms: _450  and  _451
REMARK  169  A    between atoms: _451  and  _452
REMARK  170  A    between atoms: _452  and  _453
REMARK  171  A    between atoms: _462  and  _464
REMARK  172  A    between atoms: _464  and  _465
REMARK  173  A    between atoms: _467  and  _469
REMARK  174  A    between atoms: _469  and  _470
REMARK  175  A    between atoms: _473  and  _475
REMARK  176  A    between atoms: _475  and  _476
REMARK  177  A    between atoms: _475  and  _478
REMARK  178  A    between atoms: _478  and  _479
REMARK  179  A    between atoms: _485  and  _486
REMARK  180  A    between atoms: _491  and  _493
REMARK  181  A    between atoms: _493  and  _494
REMARK  182  A    between atoms: _496  and  _498
REMARK  183  A    between atoms: _498  and  _499
REMARK  184  A    between atoms: _498  and  _501
REMARK  185  A    between atoms: _501  and  _502
REMARK  186  A    between atoms: _508  and  _510
REMARK  187  A    between atoms: _510  and  _511
REMARK  188  A    between atoms: _510  and  _513
REMARK  189  A    between atoms: _513  and  _514
REMARK  190  A    between atoms: _519  and  _521
REMARK  191  A    between atoms: _521  and  _522
REMARK  192  A    between atoms: _521  and  _524
REMARK  193  A    between atoms: _524  and  _525
REMARK  194  A    between atoms: _525  and  _526
REMARK  195  A    between atoms: _526  and  _527
REMARK  196  A    between atoms: _527  and  ZN_792
REMARK  197  A    between atoms: _529  and  _531
REMARK  198  A    between atoms: _531  and  _532
REMARK  199  A    between atoms: _535  and  _537
REMARK  200  A    between atoms: _537  and  _538
REMARK  201  A    between atoms: _540  and  _542
REMARK  202  A    between atoms: _542  and  _543
REMARK  203  A    between atoms: _542  and  _545
REMARK  204  A    between atoms: _545  and  _546
REMARK  205  A    between atoms: _549  and  _551
REMARK  206  A    between atoms: _551  and  _552
REMARK  207  A    between atoms: _551  and  _554
REMARK  208  A    between atoms: _557  and  _559
REMARK  209  A    between atoms: _559  and  _560
REMARK  210  A    between atoms: _563  and  _565
REMARK  211  A    between atoms: _565  and  _566
REMARK  212  A    between atoms: _565  and  _568
REMARK  213  A    between atoms: _568  and  _569
REMARK  214  A    between atoms: _572  and  _574
REMARK  215  A    between atoms: _574  and  _575
REMARK  216  A    between atoms: _574  and  _577
REMARK  217  A    between atoms: _577  and  _578
REMARK  218  A    between atoms: _578  and  _579
REMARK  219  A    between atoms: _582  and  _584
REMARK  220  A    between atoms: _584  and  _585
REMARK  221  A    between atoms: _584  and  _587
REMARK  222  A    between atoms: _587  and  _588
REMARK  223  A    between atoms: _588  and  _589
REMARK  224  A    between atoms: _589  and  _590
REMARK  225  A    between atoms: _590  and  _591
REMARK  226  A    between atoms: _595  and  _597
REMARK  227  A    between atoms: _597  and  _598
REMARK  228  A    between atoms: _597  and  _600
REMARK  229  A    between atoms: _600  and  _601
REMARK  230  A    between atoms: _607  and  _609
REMARK  231  A    between atoms: _609  and  _610
REMARK  232  A    between atoms: _609  and  _612
REMARK  233  A    between atoms: _612  and  _613
REMARK  234  A    between atoms: _619  and  _621
REMARK  235  A    between atoms: _621  and  _622
REMARK  236  A    between atoms: _624  and  _626
REMARK  237  A    between atoms: _626  and  _627
REMARK  238  A    between atoms: _626  and  _629
REMARK  239  A    between atoms: _632  and  _634
REMARK  240  A    between atoms: _634  and  _635
REMARK  241  A    between atoms: _634  and  _637
REMARK  242  A    between atoms: _637  and  _638
REMARK  243  A    between atoms: _638  and  _639
REMARK  244  A    between atoms: _639  and  _640
REMARK  245  A    between atoms: _640  and  _641
REMARK  246  A    between atoms: _645  and  _647
REMARK  247  A    between atoms: _647  and  _648
REMARK  248  A    between atoms: _647  and  _650
REMARK  249  A    between atoms: _650  and  _651
REMARK  250  A    between atoms: _657  and  _659
REMARK  251  A    between atoms: _659  and  _660
REMARK  252  A    between atoms: _659  and  _662
REMARK  253  A    between atoms: _662  and  _663
REMARK  254  A    between atoms: _668  and  _670
REMARK  255  A    between atoms: _670  and  _671
REMARK  256  A    between atoms: _670  and  _673
REMARK  257  A    between atoms: _673  and  _674
REMARK  258  A    between atoms: _679  and  _681
REMARK  259  A    between atoms: _681  and  _682
REMARK  260  A    between atoms: _681  and  _684
REMARK  261  A    between atoms: _687  and  _689
REMARK  262  A    between atoms: _689  and  _690
REMARK  263  A    between atoms: _689  and  _692
REMARK  264  A    between atoms: _692  and  _693
REMARK  265  A    between atoms: _697  and  _698
REMARK  266  A    between atoms: _703  and  _705
REMARK  267  A    between atoms: _705  and  _706
REMARK  268  A    between atoms: _705  and  _708
REMARK  269  A    between atoms: _708  and  _709
REMARK  270  A    between atoms: _714  and  _715
REMARK  271  A    between atoms: _717  and  _719
REMARK  272  A    between atoms: _719  and  _720
REMARK  273  A    between atoms: _719  and  _722
REMARK  274  A    between atoms: _722  and  _723
REMARK  275  A    between atoms: _723  and  _724
REMARK  276  A    between atoms: _724  and  _725
REMARK  277  A    between atoms: _734  and  _736
REMARK  278  A    between atoms: _736  and  _737
REMARK  279  A    between atoms: _736  and  _739
REMARK  280  A    between atoms: _739  and  _740
REMARK  281  A    between atoms: _745  and  _746
REMARK  282  A    between atoms: _748  and  _750
REMARK  283  A    between atoms: _750  and  _751
REMARK  284  A    between atoms: _750  and  _753
REMARK  285  A    between atoms: _753  and  _754
REMARK  286  A    between atoms: _760  and  _762
REMARK  287  A    between atoms: _762  and  _763
REMARK  288  A    between atoms: _762  and  _765
REMARK  289  A    between atoms: _765  and  _766
REMARK  290  A    between atoms: _768  and  _770
REMARK  291  A    between atoms: _770  and  _771
REMARK  292  A    between atoms: _770  and  _773
REMARK  293  A    between atoms: _773  and  _774
REMARK  294  A    between atoms: _780  and  _782
REMARK  295  A    between atoms: _782  and  _783
REMARK  296  A    between atoms: _782  and  _785
REMARK  297  A    between atoms: _785  and  _786
REMARK  298  A    between atoms: _786  and  _787
REMARK                            x       y       z     vdW  Elec       q    Type
REMARK                         _______ _______ _______ _____ _____    ______ ____
ROOT
ATOM      1  O   HOH     1       5.078 -14.306 -29.153  0.00  0.00    +0.000 OA
ENDROOT
TORSDOF 0
REMARK  Name = ../refined-set-2016/4ca6/4ca6_pocket.pdb
REMARK  298 active torsions:
REMARK  status: ('A' for Active; 'I' for Inactive)
REMARK    1  A    between atoms: _1  and  _3
REMARK    2  A    between atoms: _3  and  _4
REMARK    3  A    between atoms: _3  and  _6
REMARK    4  A    between atoms: _6  and  _7
REMARK    5  A    between atoms: _10  and  _12
REMARK    6  A    between atoms: _12  and  _13
REMARK    7  A    between atoms: _12  and  _15
REMARK    8  A    between atoms: _15  and  _16
REMARK    9  A    between atoms: _18  and  _20
REMARK   10  A    between atoms: _20  and  _21
REMARK   11  A    between atoms: _20  and  _23
REMARK   12  A    between atoms: _23  and  _24
REMARK   13  A    between atoms: _29  and  _30
REMARK   14  A    between atoms: _32  and  _34
REMARK   15  A    between atoms: _34  and  _35
REMARK   16  A    between atoms: _34  and  _37
REMARK   17  A    between atoms: _37  and  _38
REMARK   18  A    between atoms: _48  and  _50
REMARK   19  A    between atoms: _50  and  _51
REMARK   20  A    between atoms: _50  and  _53
REMARK   21  A    between atoms: _53  and  _54
REMARK   22  A    between atoms: _57  and  _59
REMARK   23  A    between atoms: _59  and  _60
REMARK   24  A    between atoms: _59  and  _62
REMARK   25  A    between atoms: _62  and  _63
REMARK   26  A    between atoms: _73  and  _75
REMARK   27  A    between atoms: _75  and  _76
REMARK   28  A    between atoms: _75  and  _78
REMARK   29  A    between atoms: _78  and  _79
REMARK   30  A    between atoms: _79  and  _80
REMARK   31  A    between atoms: _85  and  _87
REMARK   32  A    between atoms: _87  and  _88
REMARK   33  A    between atoms: _87  and  _90
REMARK   34  A    between atoms: _90  and  _91
REMARK   35  A    between atoms: _93  and  _95
REMARK   36  A    between atoms: _95  and  _96
REMARK   37  A    between atoms: _95  and  _98
REMARK   38  A    between atoms: _98  and  _99
REMARK   39  A    between atoms: _99  and  _100
REMARK   40  A    between atoms: _103  and  _105
REMARK   41  A    between atoms: _105  and  _106
REMARK   42  A    between atoms: _105  and  _108
REMARK   43  A    between atoms: _111  and  _113
REMARK   44  A    between atoms: _113  and  _114
REMARK   45  A    between atoms: _113  and  _116
REMARK   46  A    between atoms: _118  and  _120
REMARK   47  A    between atoms: _120  and  _121
REMARK   48  A    between atoms: _120  and  _123
REMARK   49  A    between atoms: _123  and  _124
REMARK   50  A    between atoms: _129  and  _131
REMARK   51  A    between atoms: _131  and  _132
REMARK   52  A    between atoms: _135  and  _137
REMARK   53  A    between atoms: _137  and  _138
REMARK   54  A    between atoms: _137  and  _140
REMARK   55  A    between atoms: _140  and  _141
REMARK   56  A    between atoms: _143  and  _145
REMARK   57  A    between atoms: _145  and  _146
REMARK   58  A    between atoms: _149  and  _151
REMARK   59  A    between atoms: _151  and  _152
REMARK   60  A    between atoms: _151  and  _154
REMARK   61  A    between atoms: _154  and  _155
REMARK   62  A    between atoms: _165  and  _167
REMARK   63  A    between atoms: _167  and  _168
REMARK   64  A    between atoms: _167  and  _170
REMARK   65  A    between atoms: _170  and  _171
REMARK   66  A    between atoms: _174  and  _176
REMARK   67  A    between atoms: _176  and  _177
REMARK   68  A    between atoms: _176  and  _179
REMARK   69  A    between atoms: _179  and  _180
REMARK   70  A    between atoms: _185  and  _186
REMARK   71  A    between atoms: _188  and  _190
REMARK   72  A    between atoms: _190  and  _191
REMARK   73  A    between atoms: _190  and  _193
REMARK   74  A    between atoms: _193  and  _194
REMARK   75  A    between atoms: _194  and  _195
REMARK   76  A    between atoms: _195  and  _196
REMARK   77  A    between atoms: _205  and  _207
REMARK   78  A    between atoms: _207  and  _208
REMARK   79  A    between atoms: _207  and  _210
REMARK   80  A    between atoms: _210  and  _211
REMARK   81  A    between atoms: _214  and  _216
REMARK   82  A    between atoms: _216  and  _217
REMARK   83  A    between atoms: _216  and  _219
REMARK   84  A    between atoms: _219  and  _220
REMARK   85  A    between atoms: _220  and  _221
REMARK   86  A    between atoms: _221  and  _222
REMARK   87  A    between atoms: _222  and  _223
REMARK   88  A    between atoms: _227  and  _229
REMARK   89  A    between atoms: _229  and  _230
REMARK   90  A    between atoms: _229  and  _232
REMARK   91  A    between atoms: _232  and  _233
REMARK   92  A    between atoms: _233  and  _234
REMARK   93  A    between atoms: _239  and  _241
REMARK   94  A    between atoms: _241  and  _242
REMARK   95  A    between atoms: _241  and  _244
REMARK   96  A    between atoms: _244  and  _245
REMARK   97  A    between atoms: _245  and  _246
REMARK   98  A    between atoms: _246  and  _247
REMARK   99  A    between atoms: _256  and  _258
REMARK  100  A    between atoms: _258  and  _259
REMARK  101  A    between atoms: _258  and  _261
REMARK  102  A    between atoms: _261  and  _262
REMARK  103  A    between atoms: _262  and  _263
REMARK  104  A    between atoms: _265  and  _267
REMARK  105  A    between atoms: _267  and  _268
REMARK  106  A    between atoms: _267  and  _270
REMARK  107  A    between atoms: _270  and  _271
REMARK  108  A    between atoms: _274  and  _276
REMARK  109  A    between atoms: _276  and  _277
REMARK  110  A    between atoms: _276  and  _279
REMARK  111  A    between atoms: _279  and  _280
REMARK  112  A    between atoms: _280  and  _281
REMARK  113  A    between atoms: _286  and  _288
REMARK  114  A    between atoms: _288  and  _289
REMARK  115  A    between atoms: _288  and  _291
REMARK  116  A    between atoms: _291  and  _292
REMARK  117  A    between atoms: _295  and  _297
REMARK  118  A    between atoms: _297  and  _298
REMARK  119  A    between atoms: _297  and  _300
REMARK  120  A    between atoms: _300  and  _301
REMARK  121  A    between atoms: _303  and  _305
REMARK  122  A    between atoms: _305  and  _306
REMARK  123  A    between atoms: _305  and  _308
REMARK  124  A    between atoms: _308  and  _309
REMARK  125  A    between atoms: _312  and  _314
REMARK  126  A    between atoms: _314  and  _315
REMARK  127  A    between atoms: _314  and  _317
REMARK  128  A    between atoms: _320  and  _322
REMARK  129  A    between atoms: _322  and  _323
REMARK  130  A    between atoms: _322  and  _325
REMARK  131  A    between atoms: _325  and  _326
REMARK  132  A    between atoms: _331  and  _333
REMARK  133  A    between atoms: _344  and  _347
REMARK  134  A    between atoms: _347  and  _348
REMARK  135  A    between atoms: _348  and  _349
REMARK  136  A    between atoms: _354  and  _357
REMARK  137  A    between atoms: _357  and  _358
REMARK  138  A    between atoms: _358  and  _359
REMARK  139  A    between atoms: _368  and  _369
REMARK  140  A    between atoms: _377  and  _379
REMARK  141  A    between atoms: _379  and  _380
REMARK  142  A    between atoms: _379  and  _382
REMARK  143  A    between atoms: _382  and  _383
REMARK  144  A    between atoms: _386  and  _388
REMARK  145  A    between atoms: _388  and  _389
REMARK  146  A    between atoms: _388  and  _391
REMARK  147  A    between atoms: _391  and  _392
REMARK  148  A    between atoms: _397  and  _398
REMARK  149  A    between atoms: _400  and  _402
REMARK  150  A    between atoms: _402  and  _403
REMARK  151  A    between atoms: _402  and  _405
REMARK  152  A    between atoms: _405  and  _406
REMARK  153  A    between atoms: _411  and  _412
REMARK  154  A    between atoms: _414  and  _416
REMARK  155  A    between atoms: _416  and  _417
REMARK  156  A    between atoms: _416  and  _419
REMARK  157  A    between atoms: _419  and  _420
REMARK  158  A    between atoms: _425  and  _426
REMARK  159  A    between atoms: _428  and  _430
REMARK  160  A    between atoms: _430  and  _431
REMARK  161  A    between atoms: _430  and  _433
REMARK  162  A    between atoms: _433  and  _434
REMARK  163  A    between atoms: _434  and  _435
REMARK  164  A    between atoms: _435  and  _436
REMARK  165  A    between atoms: _445  and  _447
REMARK  166  A    between atoms: _447  and  _448
REMARK  167  A    between atoms: _447  and  _450
REMARK  168  A    between atoms: _450  and  _451
REMARK  169  A    between atoms: _451  and  _452
REMARK  170  A    between atoms: _452  and  _453
REMARK  171  A    between atoms: _462  and  _464
REMARK  172  A    between atoms: _464  and  _465
REMARK  173  A    between atoms: _467  and  _469
REMARK  174  A    between atoms: _469  and  _470
REMARK  175  A    between atoms: _473  and  _475
REMARK  176  A    between atoms: _475  and  _476
REMARK  177  A    between atoms: _475  and  _478
REMARK  178  A    between atoms: _478  and  _479
REMARK  179  A    between atoms: _485  and  _486
REMARK  180  A    between atoms: _491  and  _493
REMARK  181  A    between atoms: _493  and  _494
REMARK  182  A    between atoms: _496  and  _498
REMARK  183  A    between atoms: _498  and  _499
REMARK  184  A    between atoms: _498  and  _501
REMARK  185  A    between atoms: _501  and  _502
REMARK  186  A    between atoms: _508  and  _510
REMARK  187  A    between atoms: _510  and  _511
REMARK  188  A    between atoms: _510  and  _513
REMARK  189  A    between atoms: _513  and  _514
REMARK  190  A    between atoms: _519  and  _521
REMARK  191  A    between atoms: _521  and  _522
REMARK  192  A    between atoms: _521  and  _524
REMARK  193  A    between atoms: _524  and  _525
REMARK  194  A    between atoms: _525  and  _526
REMARK  195  A    between atoms: _526  and  _527
REMARK  196  A    between atoms: _527  and  ZN_792
REMARK  197  A    between atoms: _529  and  _531
REMARK  198  A    between atoms: _531  and  _532
REMARK  199  A    between atoms: _535  and  _537
REMARK  200  A    between atoms: _537  and  _538
REMARK  201  A    between atoms: _540  and  _542
REMARK  202  A    between atoms: _542  and  _543
REMARK  203  A    between atoms: _542  and  _545
REMARK  204  A    between atoms: _545  and  _546
REMARK  205  A    between atoms: _549  and  _551
REMARK  206  A    between atoms: _551  and  _552
REMARK  207  A    between atoms: _551  and  _554
REMARK  208  A    between atoms: _557  and  _559
REMARK  209  A    between atoms: _559  and  _560
REMARK  210  A    between atoms: _563  and  _565
REMARK  211  A    between atoms: _565  and  _566
REMARK  212  A    between atoms: _565  and  _568
REMARK  213  A    between atoms: _568  and  _569
REMARK  214  A    between atoms: _572  and  _574
REMARK  215  A    between atoms: _574  and  _575
REMARK  216  A    between atoms: _574  and  _577
REMARK  217  A    between atoms: _577  and  _578
REMARK  218  A    between atoms: _578  and  _579
REMARK  219  A    between atoms: _582  and  _584
REMARK  220  A    between atoms: _584  and  _585
REMARK  221  A    between atoms: _584  and  _587
REMARK  222  A    between atoms: _587  and  _588
REMARK  223  A    between atoms: _588  and  _589
REMARK  224  A    between atoms: _589  and  _590
REMARK  225  A    between atoms: _590  and  _591
REMARK  226  A    between atoms: _595  and  _597
REMARK  227  A    between atoms: _597  and  _598
REMARK  228  A    between atoms: _597  and  _600
REMARK  229  A    between atoms: _600  and  _601
REMARK  230  A    between atoms: _607  and  _609
REMARK  231  A    between atoms: _609  and  _610
REMARK  232  A    between atoms: _609  and  _612
REMARK  233  A    between atoms: _612  and  _613
REMARK  234  A    between atoms: _619  and  _621
REMARK  235  A    between atoms: _621  and  _622
REMARK  236  A    between atoms: _624  and  _626
REMARK  237  A    between atoms: _626  and  _627
REMARK  238  A    between atoms: _626  and  _629
REMARK  239  A    between atoms: _632  and  _634
REMARK  240  A    between atoms: _634  and  _635
REMARK  241  A    between atoms: _634  and  _637
REMARK  242  A    between atoms: _637  and  _638
REMARK  243  A    between atoms: _638  and  _639
REMARK  244  A    between atoms: _639  and  _640
REMARK  245  A    between atoms: _640  and  _641
REMARK  246  A    between atoms: _645  and  _647
REMARK  247  A    between atoms: _647  and  _648
REMARK  248  A    between atoms: _647  and  _650
REMARK  249  A    between atoms: _650  and  _651
REMARK  250  A    between atoms: _657  and  _659
REMARK  251  A    between atoms: _659  and  _660
REMARK  252  A    between atoms: _659  and  _662
REMARK  253  A    between atoms: _662  and  _663
REMARK  254  A    between atoms: _668  and  _670
REMARK  255  A    between atoms: _670  and  _671
REMARK  256  A    between atoms: _670  and  _673
REMARK  257  A    between atoms: _673  and  _674
REMARK  258  A    between atoms: _679  and  _681
REMARK  259  A    between atoms: _681  and  _682
REMARK  260  A    between atoms: _681  and  _684
REMARK  261  A    between atoms: _687  and  _689
REMARK  262  A    between atoms: _689  and  _690
REMARK  263  A    between atoms: _689  and  _692
REMARK  264  A    between atoms: _692  and  _693
REMARK  265  A    between atoms: _697  and  _698
REMARK  266  A    between atoms: _703  and  _705
REMARK  267  A    between atoms: _705  and  _706
REMARK  268  A    between atoms: _705  and  _708
REMARK  269  A    between atoms: _708  and  _709
REMARK  270  A    between atoms: _714  and  _715
REMARK  271  A    between atoms: _717  and  _719
REMARK  272  A    between atoms: _719  and  _720
REMARK  273  A    between atoms: _719  and  _722
REMARK  274  A    between atoms: _722  and  _723
REMARK  275  A    between atoms: _723  and  _724
REMARK  276  A    between atoms: _724  and  _725
REMARK  277  A    between atoms: _734  and  _736
REMARK  278  A    between atoms: _736  and  _737
REMARK  279  A    between atoms: _736  and  _739
REMARK  280  A    between atoms: _739  and  _740
REMARK  281  A    between atoms: _745  and  _746
REMARK  282  A    between atoms: _748  and  _750
REMARK  283  A    between atoms: _750  and  _751
REMARK  284  A    between atoms: _750  and  _753
REMARK  285  A    between atoms: _753  and  _754
REMARK  286  A    between atoms: _760  and  _762
REMARK  287  A    between atoms: _762  and  _763
REMARK  288  A    between atoms: _762  and  _765
REMARK  289  A    between atoms: _765  and  _766
REMARK  290  A    between atoms: _768  and  _770
REMARK  291  A    between atoms: _770  and  _771
REMARK  292  A    between atoms: _770  and  _773
REMARK  293  A    between atoms: _773  and  _774
REMARK  294  A    between atoms: _780  and  _782
REMARK  295  A    between atoms: _782  and  _783
REMARK  296  A    between atoms: _782  and  _785
REMARK  297  A    between atoms: _785  and  _786
REMARK  298  A    between atoms: _786  and  _787
REMARK                            x       y       z     vdW  Elec       q    Type
REMARK                         _______ _______ _______ _____ _____    ______ ____
ROOT
ATOM      1  O   HOH     1      13.182 -21.613 -21.122  0.00  0.00    +0.000 OA
ENDROOT
TORSDOF 0
REMARK  Name = ../refined-set-2016/4ca6/4ca6_pocket.pdb
REMARK  298 active torsions:
REMARK  status: ('A' for Active; 'I' for Inactive)
REMARK    1  A    between atoms: _1  and  _3
REMARK    2  A    between atoms: _3  and  _4
REMARK    3  A    between atoms: _3  and  _6
REMARK    4  A    between atoms: _6  and  _7
REMARK    5  A    between atoms: _10  and  _12
REMARK    6  A    between atoms: _12  and  _13
REMARK    7  A    between atoms: _12  and  _15
REMARK    8  A    between atoms: _15  and  _16
REMARK    9  A    between atoms: _18  and  _20
REMARK   10  A    between atoms: _20  and  _21
REMARK   11  A    between atoms: _20  and  _23
REMARK   12  A    between atoms: _23  and  _24
REMARK   13  A    between atoms: _29  and  _30
REMARK   14  A    between atoms: _32  and  _34
REMARK   15  A    between atoms: _34  and  _35
REMARK   16  A    between atoms: _34  and  _37
REMARK   17  A    between atoms: _37  and  _38
REMARK   18  A    between atoms: _48  and  _50
REMARK   19  A    between atoms: _50  and  _51
REMARK   20  A    between atoms: _50  and  _53
REMARK   21  A    between atoms: _53  and  _54
REMARK   22  A    between atoms: _57  and  _59
REMARK   23  A    between atoms: _59  and  _60
REMARK   24  A    between atoms: _59  and  _62
REMARK   25  A    between atoms: _62  and  _63
REMARK   26  A    between atoms: _73  and  _75
REMARK   27  A    between atoms: _75  and  _76
REMARK   28  A    between atoms: _75  and  _78
REMARK   29  A    between atoms: _78  and  _79
REMARK   30  A    between atoms: _79  and  _80
REMARK   31  A    between atoms: _85  and  _87
REMARK   32  A    between atoms: _87  and  _88
REMARK   33  A    between atoms: _87  and  _90
REMARK   34  A    between atoms: _90  and  _91
REMARK   35  A    between atoms: _93  and  _95
REMARK   36  A    between atoms: _95  and  _96
REMARK   37  A    between atoms: _95  and  _98
REMARK   38  A    between atoms: _98  and  _99
REMARK   39  A    between atoms: _99  and  _100
REMARK   40  A    between atoms: _103  and  _105
REMARK   41  A    between atoms: _105  and  _106
REMARK   42  A    between atoms: _105  and  _108
REMARK   43  A    between atoms: _111  and  _113
REMARK   44  A    between atoms: _113  and  _114
REMARK   45  A    between atoms: _113  and  _116
REMARK   46  A    between atoms: _118  and  _120
REMARK   47  A    between atoms: _120  and  _121
REMARK   48  A    between atoms: _120  and  _123
REMARK   49  A    between atoms: _123  and  _124
REMARK   50  A    between atoms: _129  and  _131
REMARK   51  A    between atoms: _131  and  _132
REMARK   52  A    between atoms: _135  and  _137
REMARK   53  A    between atoms: _137  and  _138
REMARK   54  A    between atoms: _137  and  _140
REMARK   55  A    between atoms: _140  and  _141
REMARK   56  A    between atoms: _143  and  _145
REMARK   57  A    between atoms: _145  and  _146
REMARK   58  A    between atoms: _149  and  _151
REMARK   59  A    between atoms: _151  and  _152
REMARK   60  A    between atoms: _151  and  _154
REMARK   61  A    between atoms: _154  and  _155
REMARK   62  A    between atoms: _165  and  _167
REMARK   63  A    between atoms: _167  and  _168
REMARK   64  A    between atoms: _167  and  _170
REMARK   65  A    between atoms: _170  and  _171
REMARK   66  A    between atoms: _174  and  _176
REMARK   67  A    between atoms: _176  and  _177
REMARK   68  A    between atoms: _176  and  _179
REMARK   69  A    between atoms: _179  and  _180
REMARK   70  A    between atoms: _185  and  _186
REMARK   71  A    between atoms: _188  and  _190
REMARK   72  A    between atoms: _190  and  _191
REMARK   73  A    between atoms: _190  and  _193
REMARK   74  A    between atoms: _193  and  _194
REMARK   75  A    between atoms: _194  and  _195
REMARK   76  A    between atoms: _195  and  _196
REMARK   77  A    between atoms: _205  and  _207
REMARK   78  A    between atoms: _207  and  _208
REMARK   79  A    between atoms: _207  and  _210
REMARK   80  A    between atoms: _210  and  _211
REMARK   81  A    between atoms: _214  and  _216
REMARK   82  A    between atoms: _216  and  _217
REMARK   83  A    between atoms: _216  and  _219
REMARK   84  A    between atoms: _219  and  _220
REMARK   85  A    between atoms: _220  and  _221
REMARK   86  A    between atoms: _221  and  _222
REMARK   87  A    between atoms: _222  and  _223
REMARK   88  A    between atoms: _227  and  _229
REMARK   89  A    between atoms: _229  and  _230
REMARK   90  A    between atoms: _229  and  _232
REMARK   91  A    between atoms: _232  and  _233
REMARK   92  A    between atoms: _233  and  _234
REMARK   93  A    between atoms: _239  and  _241
REMARK   94  A    between atoms: _241  and  _242
REMARK   95  A    between atoms: _241  and  _244
REMARK   96  A    between atoms: _244  and  _245
REMARK   97  A    between atoms: _245  and  _246
REMARK   98  A    between atoms: _246  and  _247
REMARK   99  A    between atoms: _256  and  _258
REMARK  100  A    between atoms: _258  and  _259
REMARK  101  A    between atoms: _258  and  _261
REMARK  102  A    between atoms: _261  and  _262
REMARK  103  A    between atoms: _262  and  _263
REMARK  104  A    between atoms: _265  and  _267
REMARK  105  A    between atoms: _267  and  _268
REMARK  106  A    between atoms: _267  and  _270
REMARK  107  A    between atoms: _270  and  _271
REMARK  108  A    between atoms: _274  and  _276
REMARK  109  A    between atoms: _276  and  _277
REMARK  110  A    between atoms: _276  and  _279
REMARK  111  A    between atoms: _279  and  _280
REMARK  112  A    between atoms: _280  and  _281
REMARK  113  A    between atoms: _286  and  _288
REMARK  114  A    between atoms: _288  and  _289
REMARK  115  A    between atoms: _288  and  _291
REMARK  116  A    between atoms: _291  and  _292
REMARK  117  A    between atoms: _295  and  _297
REMARK  118  A    between atoms: _297  and  _298
REMARK  119  A    between atoms: _297  and  _300
REMARK  120  A    between atoms: _300  and  _301
REMARK  121  A    between atoms: _303  and  _305
REMARK  122  A    between atoms: _305  and  _306
REMARK  123  A    between atoms: _305  and  _308
REMARK  124  A    between atoms: _308  and  _309
REMARK  125  A    between atoms: _312  and  _314
REMARK  126  A    between atoms: _314  and  _315
REMARK  127  A    between atoms: _314  and  _317
REMARK  128  A    between atoms: _320  and  _322
REMARK  129  A    between atoms: _322  and  _323
REMARK  130  A    between atoms: _322  and  _325
REMARK  131  A    between atoms: _325  and  _326
REMARK  132  A    between atoms: _331  and  _333
REMARK  133  A    between atoms: _344  and  _347
REMARK  134  A    between atoms: _347  and  _348
REMARK  135  A    between atoms: _348  and  _349
REMARK  136  A    between atoms: _354  and  _357
REMARK  137  A    between atoms: _357  and  _358
REMARK  138  A    between atoms: _358  and  _359
REMARK  139  A    between atoms: _368  and  _369
REMARK  140  A    between atoms: _377  and  _379
REMARK  141  A    between atoms: _379  and  _380
REMARK  142  A    between atoms: _379  and  _382
REMARK  143  A    between atoms: _382  and  _383
REMARK  144  A    between atoms: _386  and  _388
REMARK  145  A    between atoms: _388  and  _389
REMARK  146  A    between atoms: _388  and  _391
REMARK  147  A    between atoms: _391  and  _392
REMARK  148  A    between atoms: _397  and  _398
REMARK  149  A    between atoms: _400  and  _402
REMARK  150  A    between atoms: _402  and  _403
REMARK  151  A    between atoms: _402  and  _405
REMARK  152  A    between atoms: _405  and  _406
REMARK  153  A    between atoms: _411  and  _412
REMARK  154  A    between atoms: _414  and  _416
REMARK  155  A    between atoms: _416  and  _417
REMARK  156  A    between atoms: _416  and  _419
REMARK  157  A    between atoms: _419  and  _420
REMARK  158  A    between atoms: _425  and  _426
REMARK  159  A    between atoms: _428  and  _430
REMARK  160  A    between atoms: _430  and  _431
REMARK  161  A    between atoms: _430  and  _433
REMARK  162  A    between atoms: _433  and  _434
REMARK  163  A    between atoms: _434  and  _435
REMARK  164  A    between atoms: _435  and  _436
REMARK  165  A    between atoms: _445  and  _447
REMARK  166  A    between atoms: _447  and  _448
REMARK  167  A    between atoms: _447  and  _450
REMARK  168  A    between atoms: _450  and  _451
REMARK  169  A    between atoms: _451  and  _452
REMARK  170  A    between atoms: _452  and  _453
REMARK  171  A    between atoms: _462  and  _464
REMARK  172  A    between atoms: _464  and  _465
REMARK  173  A    between atoms: _467  and  _469
REMARK  174  A    between atoms: _469  and  _470
REMARK  175  A    between atoms: _473  and  _475
REMARK  176  A    between atoms: _475  and  _476
REMARK  177  A    between atoms: _475  and  _478
REMARK  178  A    between atoms: _478  and  _479
REMARK  179  A    between atoms: _485  and  _486
REMARK  180  A    between atoms: _491  and  _493
REMARK  181  A    between atoms: _493  and  _494
REMARK  182  A    between atoms: _496  and  _498
REMARK  183  A    between atoms: _498  and  _499
REMARK  184  A    between atoms: _498  and  _501
REMARK  185  A    between atoms: _501  and  _502
REMARK  186  A    between atoms: _508  and  _510
REMARK  187  A    between atoms: _510  and  _511
REMARK  188  A    between atoms: _510  and  _513
REMARK  189  A    between atoms: _513  and  _514
REMARK  190  A    between atoms: _519  and  _521
REMARK  191  A    between atoms: _521  and  _522
REMARK  192  A    between atoms: _521  and  _524
REMARK  193  A    between atoms: _524  and  _525
REMARK  194  A    between atoms: _525  and  _526
REMARK  195  A    between atoms: _526  and  _527
REMARK  196  A    between atoms: _527  and  ZN_792
REMARK  197  A    between atoms: _529  and  _531
REMARK  198  A    between atoms: _531  and  _532
REMARK  199  A    between atoms: _535  and  _537
REMARK  200  A    between atoms: _537  and  _538
REMARK  201  A    between atoms: _540  and  _542
REMARK  202  A    between atoms: _542  and  _543
REMARK  203  A    between atoms: _542  and  _545
REMARK  204  A    between atoms: _545  and  _546
REMARK  205  A    between atoms: _549  and  _551
REMARK  206  A    between atoms: _551  and  _552
REMARK  207  A    between atoms: _551  and  _554
REMARK  208  A    between atoms: _557  and  _559
REMARK  209  A    between atoms: _559  and  _560
REMARK  210  A    between atoms: _563  and  _565
REMARK  211  A    between atoms: _565  and  _566
REMARK  212  A    between atoms: _565  and  _568
REMARK  213  A    between atoms: _568  and  _569
REMARK  214  A    between atoms: _572  and  _574
REMARK  215  A    between atoms: _574  and  _575
REMARK  216  A    between atoms: _574  and  _577
REMARK  217  A    between atoms: _577  and  _578
REMARK  218  A    between atoms: _578  and  _579
REMARK  219  A    between atoms: _582  and  _584
REMARK  220  A    between atoms: _584  and  _585
REMARK  221  A    between atoms: _584  and  _587
REMARK  222  A    between atoms: _587  and  _588
REMARK  223  A    between atoms: _588  and  _589
REMARK  224  A    between atoms: _589  and  _590
REMARK  225  A    between atoms: _590  and  _591
REMARK  226  A    between atoms: _595  and  _597
REMARK  227  A    between atoms: _597  and  _598
REMARK  228  A    between atoms: _597  and  _600
REMARK  229  A    between atoms: _600  and  _601
REMARK  230  A    between atoms: _607  and  _609
REMARK  231  A    between atoms: _609  and  _610
REMARK  232  A    between atoms: _609  and  _612
REMARK  233  A    between atoms: _612  and  _613
REMARK  234  A    between atoms: _619  and  _621
REMARK  235  A    between atoms: _621  and  _622
REMARK  236  A    between atoms: _624  and  _626
REMARK  237  A    between atoms: _626  and  _627
REMARK  238  A    between atoms: _626  and  _629
REMARK  239  A    between atoms: _632  and  _634
REMARK  240  A    between atoms: _634  and  _635
REMARK  241  A    between atoms: _634  and  _637
REMARK  242  A    between atoms: _637  and  _638
REMARK  243  A    between atoms: _638  and  _639
REMARK  244  A    between atoms: _639  and  _640
REMARK  245  A    between atoms: _640  and  _641
REMARK  246  A    between atoms: _645  and  _647
REMARK  247  A    between atoms: _647  and  _648
REMARK  248  A    between atoms: _647  and  _650
REMARK  249  A    between atoms: _650  and  _651
REMARK  250  A    between atoms: _657  and  _659
REMARK  251  A    between atoms: _659  and  _660
REMARK  252  A    between atoms: _659  and  _662
REMARK  253  A    between atoms: _662  and  _663
REMARK  254  A    between atoms: _668  and  _670
REMARK  255  A    between atoms: _670  and  _671
REMARK  256  A    between atoms: _670  and  _673
REMARK  257  A    between atoms: _673  and  _674
REMARK  258  A    between atoms: _679  and  _681
REMARK  259  A    between atoms: _681  and  _682
REMARK  260  A    between atoms: _681  and  _684
REMARK  261  A    between atoms: _687  and  _689
REMARK  262  A    between atoms: _689  and  _690
REMARK  263  A    between atoms: _689  and  _692
REMARK  264  A    between atoms: _692  and  _693
REMARK  265  A    between atoms: _697  and  _698
REMARK  266  A    between atoms: _703  and  _705
REMARK  267  A    between atoms: _705  and  _706
REMARK  268  A    between atoms: _705  and  _708
REMARK  269  A    between atoms: _708  and  _709
REMARK  270  A    between atoms: _714  and  _715
REMARK  271  A    between atoms: _717  and  _719
REMARK  272  A    between atoms: _719  and  _720
REMARK  273  A    between atoms: _719  and  _722
REMARK  274  A    between atoms: _722  and  _723
REMARK  275  A    between atoms: _723  and  _724
REMARK  276  A    between atoms: _724  and  _725
REMARK  277  A    between atoms: _734  and  _736
REMARK  278  A    between atoms: _736  and  _737
REMARK  279  A    between atoms: _736  and  _739
REMARK  280  A    between atoms: _739  and  _740
REMARK  281  A    between atoms: _745  and  _746
REMARK  282  A    between atoms: _748  and  _750
REMARK  283  A    between atoms: _750  and  _751
REMARK  284  A    between atoms: _750  and  _753
REMARK  285  A    between atoms: _753  and  _754
REMARK  286  A    between atoms: _760  and  _762
REMARK  287  A    between atoms: _762  and  _763
REMARK  288  A    between atoms: _762  and  _765
REMARK  289  A    between atoms: _765  and  _766
REMARK  290  A    between atoms: _768  and  _770
REMARK  291  A    between atoms: _770  and  _771
REMARK  292  A    between atoms: _770  and  _773
REMARK  293  A    between atoms: _773  and  _774
REMARK  294  A    between atoms: _780  and  _782
REMARK  295  A    between atoms: _782  and  _783
REMARK  296  A    between atoms: _782  and  _785
REMARK  297  A    between atoms: _785  and  _786
REMARK  298  A    between atoms: _786  and  _787
REMARK                            x       y       z     vdW  Elec       q    Type
REMARK                         _______ _______ _______ _____ _____    ______ ____
ROOT
ATOM      1  O   HOH     1       2.170 -24.378 -20.846  0.00  0.00    +0.000 OA
ENDROOT
TORSDOF 0
REMARK  Name = ../refined-set-2016/4ca6/4ca6_pocket.pdb
REMARK  298 active torsions:
REMARK  status: ('A' for Active; 'I' for Inactive)
REMARK    1  A    between atoms: _1  and  _3
REMARK    2  A    between atoms: _3  and  _4
REMARK    3  A    between atoms: _3  and  _6
REMARK    4  A    between atoms: _6  and  _7
REMARK    5  A    between atoms: _10  and  _12
REMARK    6  A    between atoms: _12  and  _13
REMARK    7  A    between atoms: _12  and  _15
REMARK    8  A    between atoms: _15  and  _16
REMARK    9  A    between atoms: _18  and  _20
REMARK   10  A    between atoms: _20  and  _21
REMARK   11  A    between atoms: _20  and  _23
REMARK   12  A    between atoms: _23  and  _24
REMARK   13  A    between atoms: _29  and  _30
REMARK   14  A    between atoms: _32  and  _34
REMARK   15  A    between atoms: _34  and  _35
REMARK   16  A    between atoms: _34  and  _37
REMARK   17  A    between atoms: _37  and  _38
REMARK   18  A    between atoms: _48  and  _50
REMARK   19  A    between atoms: _50  and  _51
REMARK   20  A    between atoms: _50  and  _53
REMARK   21  A    between atoms: _53  and  _54
REMARK   22  A    between atoms: _57  and  _59
REMARK   23  A    between atoms: _59  and  _60
REMARK   24  A    between atoms: _59  and  _62
REMARK   25  A    between atoms: _62  and  _63
REMARK   26  A    between atoms: _73  and  _75
REMARK   27  A    between atoms: _75  and  _76
REMARK   28  A    between atoms: _75  and  _78
REMARK   29  A    between atoms: _78  and  _79
REMARK   30  A    between atoms: _79  and  _80
REMARK   31  A    between atoms: _85  and  _87
REMARK   32  A    between atoms: _87  and  _88
REMARK   33  A    between atoms: _87  and  _90
REMARK   34  A    between atoms: _90  and  _91
REMARK   35  A    between atoms: _93  and  _95
REMARK   36  A    between atoms: _95  and  _96
REMARK   37  A    between atoms: _95  and  _98
REMARK   38  A    between atoms: _98  and  _99
REMARK   39  A    between atoms: _99  and  _100
REMARK   40  A    between atoms: _103  and  _105
REMARK   41  A    between atoms: _105  and  _106
REMARK   42  A    between atoms: _105  and  _108
REMARK   43  A    between atoms: _111  and  _113
REMARK   44  A    between atoms: _113  and  _114
REMARK   45  A    between atoms: _113  and  _116
REMARK   46  A    between atoms: _118  and  _120
REMARK   47  A    between atoms: _120  and  _121
REMARK   48  A    between atoms: _120  and  _123
REMARK   49  A    between atoms: _123  and  _124
REMARK   50  A    between atoms: _129  and  _131
REMARK   51  A    between atoms: _131  and  _132
REMARK   52  A    between atoms: _135  and  _137
REMARK   53  A    between atoms: _137  and  _138
REMARK   54  A    between atoms: _137  and  _140
REMARK   55  A    between atoms: _140  and  _141
REMARK   56  A    between atoms: _143  and  _145
REMARK   57  A    between atoms: _145  and  _146
REMARK   58  A    between atoms: _149  and  _151
REMARK   59  A    between atoms: _151  and  _152
REMARK   60  A    between atoms: _151  and  _154
REMARK   61  A    between atoms: _154  and  _155
REMARK   62  A    between atoms: _165  and  _167
REMARK   63  A    between atoms: _167  and  _168
REMARK   64  A    between atoms: _167  and  _170
REMARK   65  A    between atoms: _170  and  _171
REMARK   66  A    between atoms: _174  and  _176
REMARK   67  A    between atoms: _176  and  _177
REMARK   68  A    between atoms: _176  and  _179
REMARK   69  A    between atoms: _179  and  _180
REMARK   70  A    between atoms: _185  and  _186
REMARK   71  A    between atoms: _188  and  _190
REMARK   72  A    between atoms: _190  and  _191
REMARK   73  A    between atoms: _190  and  _193
REMARK   74  A    between atoms: _193  and  _194
REMARK   75  A    between atoms: _194  and  _195
REMARK   76  A    between atoms: _195  and  _196
REMARK   77  A    between atoms: _205  and  _207
REMARK   78  A    between atoms: _207  and  _208
REMARK   79  A    between atoms: _207  and  _210
REMARK   80  A    between atoms: _210  and  _211
REMARK   81  A    between atoms: _214  and  _216
REMARK   82  A    between atoms: _216  and  _217
REMARK   83  A    between atoms: _216  and  _219
REMARK   84  A    between atoms: _219  and  _220
REMARK   85  A    between atoms: _220  and  _221
REMARK   86  A    between atoms: _221  and  _222
REMARK   87  A    between atoms: _222  and  _223
REMARK   88  A    between atoms: _227  and  _229
REMARK   89  A    between atoms: _229  and  _230
REMARK   90  A    between atoms: _229  and  _232
REMARK   91  A    between atoms: _232  and  _233
REMARK   92  A    between atoms: _233  and  _234
REMARK   93  A    between atoms: _239  and  _241
REMARK   94  A    between atoms: _241  and  _242
REMARK   95  A    between atoms: _241  and  _244
REMARK   96  A    between atoms: _244  and  _245
REMARK   97  A    between atoms: _245  and  _246
REMARK   98  A    between atoms: _246  and  _247
REMARK   99  A    between atoms: _256  and  _258
REMARK  100  A    between atoms: _258  and  _259
REMARK  101  A    between atoms: _258  and  _261
REMARK  102  A    between atoms: _261  and  _262
REMARK  103  A    between atoms: _262  and  _263
REMARK  104  A    between atoms: _265  and  _267
REMARK  105  A    between atoms: _267  and  _268
REMARK  106  A    between atoms: _267  and  _270
REMARK  107  A    between atoms: _270  and  _271
REMARK  108  A    between atoms: _274  and  _276
REMARK  109  A    between atoms: _276  and  _277
REMARK  110  A    between atoms: _276  and  _279
REMARK  111  A    between atoms: _279  and  _280
REMARK  112  A    between atoms: _280  and  _281
REMARK  113  A    between atoms: _286  and  _288
REMARK  114  A    between atoms: _288  and  _289
REMARK  115  A    between atoms: _288  and  _291
REMARK  116  A    between atoms: _291  and  _292
REMARK  117  A    between atoms: _295  and  _297
REMARK  118  A    between atoms: _297  and  _298
REMARK  119  A    between atoms: _297  and  _300
REMARK  120  A    between atoms: _300  and  _301
REMARK  121  A    between atoms: _303  and  _305
REMARK  122  A    between atoms: _305  and  _306
REMARK  123  A    between atoms: _305  and  _308
REMARK  124  A    between atoms: _308  and  _309
REMARK  125  A    between atoms: _312  and  _314
REMARK  126  A    between atoms: _314  and  _315
REMARK  127  A    between atoms: _314  and  _317
REMARK  128  A    between atoms: _320  and  _322
REMARK  129  A    between atoms: _322  and  _323
REMARK  130  A    between atoms: _322  and  _325
REMARK  131  A    between atoms: _325  and  _326
REMARK  132  A    between atoms: _331  and  _333
REMARK  133  A    between atoms: _344  and  _347
REMARK  134  A    between atoms: _347  and  _348
REMARK  135  A    between atoms: _348  and  _349
REMARK  136  A    between atoms: _354  and  _357
REMARK  137  A    between atoms: _357  and  _358
REMARK  138  A    between atoms: _358  and  _359
REMARK  139  A    between atoms: _368  and  _369
REMARK  140  A    between atoms: _377  and  _379
REMARK  141  A    between atoms: _379  and  _380
REMARK  142  A    between atoms: _379  and  _382
REMARK  143  A    between atoms: _382  and  _383
REMARK  144  A    between atoms: _386  and  _388
REMARK  145  A    between atoms: _388  and  _389
REMARK  146  A    between atoms: _388  and  _391
REMARK  147  A    between atoms: _391  and  _392
REMARK  148  A    between atoms: _397  and  _398
REMARK  149  A    between atoms: _400  and  _402
REMARK  150  A    between atoms: _402  and  _403
REMARK  151  A    between atoms: _402  and  _405
REMARK  152  A    between atoms: _405  and  _406
REMARK  153  A    between atoms: _411  and  _412
REMARK  154  A    between atoms: _414  and  _416
REMARK  155  A    between atoms: _416  and  _417
REMARK  156  A    between atoms: _416  and  _419
REMARK  157  A    between atoms: _419  and  _420
REMARK  158  A    between atoms: _425  and  _426
REMARK  159  A    between atoms: _428  and  _430
REMARK  160  A    between atoms: _430  and  _431
REMARK  161  A    between atoms: _430  and  _433
REMARK  162  A    between atoms: _433  and  _434
REMARK  163  A    between atoms: _434  and  _435
REMARK  164  A    between atoms: _435  and  _436
REMARK  165  A    between atoms: _445  and  _447
REMARK  166  A    between atoms: _447  and  _448
REMARK  167  A    between atoms: _447  and  _450
REMARK  168  A    between atoms: _450  and  _451
REMARK  169  A    between atoms: _451  and  _452
REMARK  170  A    between atoms: _452  and  _453
REMARK  171  A    between atoms: _462  and  _464
REMARK  172  A    between atoms: _464  and  _465
REMARK  173  A    between atoms: _467  and  _469
REMARK  174  A    between atoms: _469  and  _470
REMARK  175  A    between atoms: _473  and  _475
REMARK  176  A    between atoms: _475  and  _476
REMARK  177  A    between atoms: _475  and  _478
REMARK  178  A    between atoms: _478  and  _479
REMARK  179  A    between atoms: _485  and  _486
REMARK  180  A    between atoms: _491  and  _493
REMARK  181  A    between atoms: _493  and  _494
REMARK  182  A    between atoms: _496  and  _498
REMARK  183  A    between atoms: _498  and  _499
REMARK  184  A    between atoms: _498  and  _501
REMARK  185  A    between atoms: _501  and  _502
REMARK  186  A    between atoms: _508  and  _510
REMARK  187  A    between atoms: _510  and  _511
REMARK  188  A    between atoms: _510  and  _513
REMARK  189  A    between atoms: _513  and  _514
REMARK  190  A    between atoms: _519  and  _521
REMARK  191  A    between atoms: _521  and  _522
REMARK  192  A    between atoms: _521  and  _524
REMARK  193  A    between atoms: _524  and  _525
REMARK  194  A    between atoms: _525  and  _526
REMARK  195  A    between atoms: _526  and  _527
REMARK  196  A    between atoms: _527  and  ZN_792
REMARK  197  A    between atoms: _529  and  _531
REMARK  198  A    between atoms: _531  and  _532
REMARK  199  A    between atoms: _535  and  _537
REMARK  200  A    between atoms: _537  and  _538
REMARK  201  A    between atoms: _540  and  _542
REMARK  202  A    between atoms: _542  and  _543
REMARK  203  A    between atoms: _542  and  _545
REMARK  204  A    between atoms: _545  and  _546
REMARK  205  A    between atoms: _549  and  _551
REMARK  206  A    between atoms: _551  and  _552
REMARK  207  A    between atoms: _551  and  _554
REMARK  208  A    between atoms: _557  and  _559
REMARK  209  A    between atoms: _559  and  _560
REMARK  210  A    between atoms: _563  and  _565
REMARK  211  A    between atoms: _565  and  _566
REMARK  212  A    between atoms: _565  and  _568
REMARK  213  A    between atoms: _568  and  _569
REMARK  214  A    between atoms: _572  and  _574
REMARK  215  A    between atoms: _574  and  _575
REMARK  216  A    between atoms: _574  and  _577
REMARK  217  A    between atoms: _577  and  _578
REMARK  218  A    between atoms: _578  and  _579
REMARK  219  A    between atoms: _582  and  _584
REMARK  220  A    between atoms: _584  and  _585
REMARK  221  A    between atoms: _584  and  _587
REMARK  222  A    between atoms: _587  and  _588
REMARK  223  A    between atoms: _588  and  _589
REMARK  224  A    between atoms: _589  and  _590
REMARK  225  A    between atoms: _590  and  _591
REMARK  226  A    between atoms: _595  and  _597
REMARK  227  A    between atoms: _597  and  _598
REMARK  228  A    between atoms: _597  and  _600
REMARK  229  A    between atoms: _600  and  _601
REMARK  230  A    between atoms: _607  and  _609
REMARK  231  A    between atoms: _609  and  _610
REMARK  232  A    between atoms: _609  and  _612
REMARK  233  A    between atoms: _612  and  _613
REMARK  234  A    between atoms: _619  and  _621
REMARK  235  A    between atoms: _621  and  _622
REMARK  236  A    between atoms: _624  and  _626
REMARK  237  A    between atoms: _626  and  _627
REMARK  238  A    between atoms: _626  and  _629
REMARK  239  A    between atoms: _632  and  _634
REMARK  240  A    between atoms: _634  and  _635
REMARK  241  A    between atoms: _634  and  _637
REMARK  242  A    between atoms: _637  and  _638
REMARK  243  A    between atoms: _638  and  _639
REMARK  244  A    between atoms: _639  and  _640
REMARK  245  A    between atoms: _640  and  _641
REMARK  246  A    between atoms: _645  and  _647
REMARK  247  A    between atoms: _647  and  _648
REMARK  248  A    between atoms: _647  and  _650
REMARK  249  A    between atoms: _650  and  _651
REMARK  250  A    between atoms: _657  and  _659
REMARK  251  A    between atoms: _659  and  _660
REMARK  252  A    between atoms: _659  and  _662
REMARK  253  A    between atoms: _662  and  _663
REMARK  254  A    between atoms: _668  and  _670
REMARK  255  A    between atoms: _670  and  _671
REMARK  256  A    between atoms: _670  and  _673
REMARK  257  A    between atoms: _673  and  _674
REMARK  258  A    between atoms: _679  and  _681
REMARK  259  A    between atoms: _681  and  _682
REMARK  260  A    between atoms: _681  and  _684
REMARK  261  A    between atoms: _687  and  _689
REMARK  262  A    between atoms: _689  and  _690
REMARK  263  A    between atoms: _689  and  _692
REMARK  264  A    between atoms: _692  and  _693
REMARK  265  A    between atoms: _697  and  _698
REMARK  266  A    between atoms: _703  and  _705
REMARK  267  A    between atoms: _705  and  _706
REMARK  268  A    between atoms: _705  and  _708
REMARK  269  A    between atoms: _708  and  _709
REMARK  270  A    between atoms: _714  and  _715
REMARK  271  A    between atoms: _717  and  _719
REMARK  272  A    between atoms: _719  and  _720
REMARK  273  A    between atoms: _719  and  _722
REMARK  274  A    between atoms: _722  and  _723
REMARK  275  A    between atoms: _723  and  _724
REMARK  276  A    between atoms: _724  and  _725
REMARK  277  A    between atoms: _734  and  _736
REMARK  278  A    between atoms: _736  and  _737
REMARK  279  A    between atoms: _736  and  _739
REMARK  280  A    between atoms: _739  and  _740
REMARK  281  A    between atoms: _745  and  _746
REMARK  282  A    between atoms: _748  and  _750
REMARK  283  A    between atoms: _750  and  _751
REMARK  284  A    between atoms: _750  and  _753
REMARK  285  A    between atoms: _753  and  _754
REMARK  286  A    between atoms: _760  and  _762
REMARK  287  A    between atoms: _762  and  _763
REMARK  288  A    between atoms: _762  and  _765
REMARK  289  A    between atoms: _765  and  _766
REMARK  290  A    between atoms: _768  and  _770
REMARK  291  A    between atoms: _770  and  _771
REMARK  292  A    between atoms: _770  and  _773
REMARK  293  A    between atoms: _773  and  _774
REMARK  294  A    between atoms: _780  and  _782
REMARK  295  A    between atoms: _782  and  _783
REMARK  296  A    between atoms: _782  and  _785
REMARK  297  A    between atoms: _785  and  _786
REMARK  298  A    between atoms: _786  and  _787
REMARK                            x       y       z     vdW  Elec       q    Type
REMARK                         _______ _______ _______ _____ _____    ______ ____
ROOT
ATOM      1  O   HOH     1      -7.256 -23.539 -15.323  0.00  0.00    +0.000 OA
ENDROOT
TORSDOF 0
REMARK  Name = ../refined-set-2016/4ca6/4ca6_pocket.pdb
REMARK  298 active torsions:
REMARK  status: ('A' for Active; 'I' for Inactive)
REMARK    1  A    between atoms: _1  and  _3
REMARK    2  A    between atoms: _3  and  _4
REMARK    3  A    between atoms: _3  and  _6
REMARK    4  A    between atoms: _6  and  _7
REMARK    5  A    between atoms: _10  and  _12
REMARK    6  A    between atoms: _12  and  _13
REMARK    7  A    between atoms: _12  and  _15
REMARK    8  A    between atoms: _15  and  _16
REMARK    9  A    between atoms: _18  and  _20
REMARK   10  A    between atoms: _20  and  _21
REMARK   11  A    between atoms: _20  and  _23
REMARK   12  A    between atoms: _23  and  _24
REMARK   13  A    between atoms: _29  and  _30
REMARK   14  A    between atoms: _32  and  _34
REMARK   15  A    between atoms: _34  and  _35
REMARK   16  A    between atoms: _34  and  _37
REMARK   17  A    between atoms: _37  and  _38
REMARK   18  A    between atoms: _48  and  _50
REMARK   19  A    between atoms: _50  and  _51
REMARK   20  A    between atoms: _50  and  _53
REMARK   21  A    between atoms: _53  and  _54
REMARK   22  A    between atoms: _57  and  _59
REMARK   23  A    between atoms: _59  and  _60
REMARK   24  A    between atoms: _59  and  _62
REMARK   25  A    between atoms: _62  and  _63
REMARK   26  A    between atoms: _73  and  _75
REMARK   27  A    between atoms: _75  and  _76
REMARK   28  A    between atoms: _75  and  _78
REMARK   29  A    between atoms: _78  and  _79
REMARK   30  A    between atoms: _79  and  _80
REMARK   31  A    between atoms: _85  and  _87
REMARK   32  A    between atoms: _87  and  _88
REMARK   33  A    between atoms: _87  and  _90
REMARK   34  A    between atoms: _90  and  _91
REMARK   35  A    between atoms: _93  and  _95
REMARK   36  A    between atoms: _95  and  _96
REMARK   37  A    between atoms: _95  and  _98
REMARK   38  A    between atoms: _98  and  _99
REMARK   39  A    between atoms: _99  and  _100
REMARK   40  A    between atoms: _103  and  _105
REMARK   41  A    between atoms: _105  and  _106
REMARK   42  A    between atoms: _105  and  _108
REMARK   43  A    between atoms: _111  and  _113
REMARK   44  A    between atoms: _113  and  _114
REMARK   45  A    between atoms: _113  and  _116
REMARK   46  A    between atoms: _118  and  _120
REMARK   47  A    between atoms: _120  and  _121
REMARK   48  A    between atoms: _120  and  _123
REMARK   49  A    between atoms: _123  and  _124
REMARK   50  A    between atoms: _129  and  _131
REMARK   51  A    between atoms: _131  and  _132
REMARK   52  A    between atoms: _135  and  _137
REMARK   53  A    between atoms: _137  and  _138
REMARK   54  A    between atoms: _137  and  _140
REMARK   55  A    between atoms: _140  and  _141
REMARK   56  A    between atoms: _143  and  _145
REMARK   57  A    between atoms: _145  and  _146
REMARK   58  A    between atoms: _149  and  _151
REMARK   59  A    between atoms: _151  and  _152
REMARK   60  A    between atoms: _151  and  _154
REMARK   61  A    between atoms: _154  and  _155
REMARK   62  A    between atoms: _165  and  _167
REMARK   63  A    between atoms: _167  and  _168
REMARK   64  A    between atoms: _167  and  _170
REMARK   65  A    between atoms: _170  and  _171
REMARK   66  A    between atoms: _174  and  _176
REMARK   67  A    between atoms: _176  and  _177
REMARK   68  A    between atoms: _176  and  _179
REMARK   69  A    between atoms: _179  and  _180
REMARK   70  A    between atoms: _185  and  _186
REMARK   71  A    between atoms: _188  and  _190
REMARK   72  A    between atoms: _190  and  _191
REMARK   73  A    between atoms: _190  and  _193
REMARK   74  A    between atoms: _193  and  _194
REMARK   75  A    between atoms: _194  and  _195
REMARK   76  A    between atoms: _195  and  _196
REMARK   77  A    between atoms: _205  and  _207
REMARK   78  A    between atoms: _207  and  _208
REMARK   79  A    between atoms: _207  and  _210
REMARK   80  A    between atoms: _210  and  _211
REMARK   81  A    between atoms: _214  and  _216
REMARK   82  A    between atoms: _216  and  _217
REMARK   83  A    between atoms: _216  and  _219
REMARK   84  A    between atoms: _219  and  _220
REMARK   85  A    between atoms: _220  and  _221
REMARK   86  A    between atoms: _221  and  _222
REMARK   87  A    between atoms: _222  and  _223
REMARK   88  A    between atoms: _227  and  _229
REMARK   89  A    between atoms: _229  and  _230
REMARK   90  A    between atoms: _229  and  _232
REMARK   91  A    between atoms: _232  and  _233
REMARK   92  A    between atoms: _233  and  _234
REMARK   93  A    between atoms: _239  and  _241
REMARK   94  A    between atoms: _241  and  _242
REMARK   95  A    between atoms: _241  and  _244
REMARK   96  A    between atoms: _244  and  _245
REMARK   97  A    between atoms: _245  and  _246
REMARK   98  A    between atoms: _246  and  _247
REMARK   99  A    between atoms: _256  and  _258
REMARK  100  A    between atoms: _258  and  _259
REMARK  101  A    between atoms: _258  and  _261
REMARK  102  A    between atoms: _261  and  _262
REMARK  103  A    between atoms: _262  and  _263
REMARK  104  A    between atoms: _265  and  _267
REMARK  105  A    between atoms: _267  and  _268
REMARK  106  A    between atoms: _267  and  _270
REMARK  107  A    between atoms: _270  and  _271
REMARK  108  A    between atoms: _274  and  _276
REMARK  109  A    between atoms: _276  and  _277
REMARK  110  A    between atoms: _276  and  _279
REMARK  111  A    between atoms: _279  and  _280
REMARK  112  A    between atoms: _280  and  _281
REMARK  113  A    between atoms: _286  and  _288
REMARK  114  A    between atoms: _288  and  _289
REMARK  115  A    between atoms: _288  and  _291
REMARK  116  A    between atoms: _291  and  _292
REMARK  117  A    between atoms: _295  and  _297
REMARK  118  A    between atoms: _297  and  _298
REMARK  119  A    between atoms: _297  and  _300
REMARK  120  A    between atoms: _300  and  _301
REMARK  121  A    between atoms: _303  and  _305
REMARK  122  A    between atoms: _305  and  _306
REMARK  123  A    between atoms: _305  and  _308
REMARK  124  A    between atoms: _308  and  _309
REMARK  125  A    between atoms: _312  and  _314
REMARK  126  A    between atoms: _314  and  _315
REMARK  127  A    between atoms: _314  and  _317
REMARK  128  A    between atoms: _320  and  _322
REMARK  129  A    between atoms: _322  and  _323
REMARK  130  A    between atoms: _322  and  _325
REMARK  131  A    between atoms: _325  and  _326
REMARK  132  A    between atoms: _331  and  _333
REMARK  133  A    between atoms: _344  and  _347
REMARK  134  A    between atoms: _347  and  _348
REMARK  135  A    between atoms: _348  and  _349
REMARK  136  A    between atoms: _354  and  _357
REMARK  137  A    between atoms: _357  and  _358
REMARK  138  A    between atoms: _358  and  _359
REMARK  139  A    between atoms: _368  and  _369
REMARK  140  A    between atoms: _377  and  _379
REMARK  141  A    between atoms: _379  and  _380
REMARK  142  A    between atoms: _379  and  _382
REMARK  143  A    between atoms: _382  and  _383
REMARK  144  A    between atoms: _386  and  _388
REMARK  145  A    between atoms: _388  and  _389
REMARK  146  A    between atoms: _388  and  _391
REMARK  147  A    between atoms: _391  and  _392
REMARK  148  A    between atoms: _397  and  _398
REMARK  149  A    between atoms: _400  and  _402
REMARK  150  A    between atoms: _402  and  _403
REMARK  151  A    between atoms: _402  and  _405
REMARK  152  A    between atoms: _405  and  _406
REMARK  153  A    between atoms: _411  and  _412
REMARK  154  A    between atoms: _414  and  _416
REMARK  155  A    between atoms: _416  and  _417
REMARK  156  A    between atoms: _416  and  _419
REMARK  157  A    between atoms: _419  and  _420
REMARK  158  A    between atoms: _425  and  _426
REMARK  159  A    between atoms: _428  and  _430
REMARK  160  A    between atoms: _430  and  _431
REMARK  161  A    between atoms: _430  and  _433
REMARK  162  A    between atoms: _433  and  _434
REMARK  163  A    between atoms: _434  and  _435
REMARK  164  A    between atoms: _435  and  _436
REMARK  165  A    between atoms: _445  and  _447
REMARK  166  A    between atoms: _447  and  _448
REMARK  167  A    between atoms: _447  and  _450
REMARK  168  A    between atoms: _450  and  _451
REMARK  169  A    between atoms: _451  and  _452
REMARK  170  A    between atoms: _452  and  _453
REMARK  171  A    between atoms: _462  and  _464
REMARK  172  A    between atoms: _464  and  _465
REMARK  173  A    between atoms: _467  and  _469
REMARK  174  A    between atoms: _469  and  _470
REMARK  175  A    between atoms: _473  and  _475
REMARK  176  A    between atoms: _475  and  _476
REMARK  177  A    between atoms: _475  and  _478
REMARK  178  A    between atoms: _478  and  _479
REMARK  179  A    between atoms: _485  and  _486
REMARK  180  A    between atoms: _491  and  _493
REMARK  181  A    between atoms: _493  and  _494
REMARK  182  A    between atoms: _496  and  _498
REMARK  183  A    between atoms: _498  and  _499
REMARK  184  A    between atoms: _498  and  _501
REMARK  185  A    between atoms: _501  and  _502
REMARK  186  A    between atoms: _508  and  _510
REMARK  187  A    between atoms: _510  and  _511
REMARK  188  A    between atoms: _510  and  _513
REMARK  189  A    between atoms: _513  and  _514
REMARK  190  A    between atoms: _519  and  _521
REMARK  191  A    between atoms: _521  and  _522
REMARK  192  A    between atoms: _521  and  _524
REMARK  193  A    between atoms: _524  and  _525
REMARK  194  A    between atoms: _525  and  _526
REMARK  195  A    between atoms: _526  and  _527
REMARK  196  A    between atoms: _527  and  ZN_792
REMARK  197  A    between atoms: _529  and  _531
REMARK  198  A    between atoms: _531  and  _532
REMARK  199  A    between atoms: _535  and  _537
REMARK  200  A    between atoms: _537  and  _538
REMARK  201  A    between atoms: _540  and  _542
REMARK  202  A    between atoms: _542  and  _543
REMARK  203  A    between atoms: _542  and  _545
REMARK  204  A    between atoms: _545  and  _546
REMARK  205  A    between atoms: _549  and  _551
REMARK  206  A    between atoms: _551  and  _552
REMARK  207  A    between atoms: _551  and  _554
REMARK  208  A    between atoms: _557  and  _559
REMARK  209  A    between atoms: _559  and  _560
REMARK  210  A    between atoms: _563  and  _565
REMARK  211  A    between atoms: _565  and  _566
REMARK  212  A    between atoms: _565  and  _568
REMARK  213  A    between atoms: _568  and  _569
REMARK  214  A    between atoms: _572  and  _574
REMARK  215  A    between atoms: _574  and  _575
REMARK  216  A    between atoms: _574  and  _577
REMARK  217  A    between atoms: _577  and  _578
REMARK  218  A    between atoms: _578  and  _579
REMARK  219  A    between atoms: _582  and  _584
REMARK  220  A    between atoms: _584  and  _585
REMARK  221  A    between atoms: _584  and  _587
REMARK  222  A    between atoms: _587  and  _588
REMARK  223  A    between atoms: _588  and  _589
REMARK  224  A    between atoms: _589  and  _590
REMARK  225  A    between atoms: _590  and  _591
REMARK  226  A    between atoms: _595  and  _597
REMARK  227  A    between atoms: _597  and  _598
REMARK  228  A    between atoms: _597  and  _600
REMARK  229  A    between atoms: _600  and  _601
REMARK  230  A    between atoms: _607  and  _609
REMARK  231  A    between atoms: _609  and  _610
REMARK  232  A    between atoms: _609  and  _612
REMARK  233  A    between atoms: _612  and  _613
REMARK  234  A    between atoms: _619  and  _621
REMARK  235  A    between atoms: _621  and  _622
REMARK  236  A    between atoms: _624  and  _626
REMARK  237  A    between atoms: _626  and  _627
REMARK  238  A    between atoms: _626  and  _629
REMARK  239  A    between atoms: _632  and  _634
REMARK  240  A    between atoms: _634  and  _635
REMARK  241  A    between atoms: _634  and  _637
REMARK  242  A    between atoms: _637  and  _638
REMARK  243  A    between atoms: _638  and  _639
REMARK  244  A    between atoms: _639  and  _640
REMARK  245  A    between atoms: _640  and  _641
REMARK  246  A    between atoms: _645  and  _647
REMARK  247  A    between atoms: _647  and  _648
REMARK  248  A    between atoms: _647  and  _650
REMARK  249  A    between atoms: _650  and  _651
REMARK  250  A    between atoms: _657  and  _659
REMARK  251  A    between atoms: _659  and  _660
REMARK  252  A    between atoms: _659  and  _662
REMARK  253  A    between atoms: _662  and  _663
REMARK  254  A    between atoms: _668  and  _670
REMARK  255  A    between atoms: _670  and  _671
REMARK  256  A    between atoms: _670  and  _673
REMARK  257  A    between atoms: _673  and  _674
REMARK  258  A    between atoms: _679  and  _681
REMARK  259  A    between atoms: _681  and  _682
REMARK  260  A    between atoms: _681  and  _684
REMARK  261  A    between atoms: _687  and  _689
REMARK  262  A    between atoms: _689  and  _690
REMARK  263  A    between atoms: _689  and  _692
REMARK  264  A    between atoms: _692  and  _693
REMARK  265  A    between atoms: _697  and  _698
REMARK  266  A    between atoms: _703  and  _705
REMARK  267  A    between atoms: _705  and  _706
REMARK  268  A    between atoms: _705  and  _708
REMARK  269  A    between atoms: _708  and  _709
REMARK  270  A    between atoms: _714  and  _715
REMARK  271  A    between atoms: _717  and  _719
REMARK  272  A    between atoms: _719  and  _720
REMARK  273  A    between atoms: _719  and  _722
REMARK  274  A    between atoms: _722  and  _723
REMARK  275  A    between atoms: _723  and  _724
REMARK  276  A    between atoms: _724  and  _725
REMARK  277  A    between atoms: _734  and  _736
REMARK  278  A    between atoms: _736  and  _737
REMARK  279  A    between atoms: _736  and  _739
REMARK  280  A    between atoms: _739  and  _740
REMARK  281  A    between atoms: _745  and  _746
REMARK  282  A    between atoms: _748  and  _750
REMARK  283  A    between atoms: _750  and  _751
REMARK  284  A    between atoms: _750  and  _753
REMARK  285  A    between atoms: _753  and  _754
REMARK  286  A    between atoms: _760  and  _762
REMARK  287  A    between atoms: _762  and  _763
REMARK  288  A    between atoms: _762  and  _765
REMARK  289  A    between atoms: _765  and  _766
REMARK  290  A    between atoms: _768  and  _770
REMARK  291  A    between atoms: _770  and  _771
REMARK  292  A    between atoms: _770  and  _773
REMARK  293  A    between atoms: _773  and  _774
REMARK  294  A    between atoms: _780  and  _782
REMARK  295  A    between atoms: _782  and  _783
REMARK  296  A    between atoms: _782  and  _785
REMARK  297  A    between atoms: _785  and  _786
REMARK  298  A    between atoms: _786  and  _787
REMARK                            x       y       z     vdW  Elec       q    Type
REMARK                         _______ _______ _______ _____ _____    ______ ____
ROOT
ATOM      1  O   HOH     1      -8.272 -23.963 -12.934  0.00  0.00    +0.000 OA
ENDROOT
TORSDOF 0
REMARK  Name = ../refined-set-2016/4ca6/4ca6_pocket.pdb
REMARK  298 active torsions:
REMARK  status: ('A' for Active; 'I' for Inactive)
REMARK    1  A    between atoms: _1  and  _3
REMARK    2  A    between atoms: _3  and  _4
REMARK    3  A    between atoms: _3  and  _6
REMARK    4  A    between atoms: _6  and  _7
REMARK    5  A    between atoms: _10  and  _12
REMARK    6  A    between atoms: _12  and  _13
REMARK    7  A    between atoms: _12  and  _15
REMARK    8  A    between atoms: _15  and  _16
REMARK    9  A    between atoms: _18  and  _20
REMARK   10  A    between atoms: _20  and  _21
REMARK   11  A    between atoms: _20  and  _23
REMARK   12  A    between atoms: _23  and  _24
REMARK   13  A    between atoms: _29  and  _30
REMARK   14  A    between atoms: _32  and  _34
REMARK   15  A    between atoms: _34  and  _35
REMARK   16  A    between atoms: _34  and  _37
REMARK   17  A    between atoms: _37  and  _38
REMARK   18  A    between atoms: _48  and  _50
REMARK   19  A    between atoms: _50  and  _51
REMARK   20  A    between atoms: _50  and  _53
REMARK   21  A    between atoms: _53  and  _54
REMARK   22  A    between atoms: _57  and  _59
REMARK   23  A    between atoms: _59  and  _60
REMARK   24  A    between atoms: _59  and  _62
REMARK   25  A    between atoms: _62  and  _63
REMARK   26  A    between atoms: _73  and  _75
REMARK   27  A    between atoms: _75  and  _76
REMARK   28  A    between atoms: _75  and  _78
REMARK   29  A    between atoms: _78  and  _79
REMARK   30  A    between atoms: _79  and  _80
REMARK   31  A    between atoms: _85  and  _87
REMARK   32  A    between atoms: _87  and  _88
REMARK   33  A    between atoms: _87  and  _90
REMARK   34  A    between atoms: _90  and  _91
REMARK   35  A    between atoms: _93  and  _95
REMARK   36  A    between atoms: _95  and  _96
REMARK   37  A    between atoms: _95  and  _98
REMARK   38  A    between atoms: _98  and  _99
REMARK   39  A    between atoms: _99  and  _100
REMARK   40  A    between atoms: _103  and  _105
REMARK   41  A    between atoms: _105  and  _106
REMARK   42  A    between atoms: _105  and  _108
REMARK   43  A    between atoms: _111  and  _113
REMARK   44  A    between atoms: _113  and  _114
REMARK   45  A    between atoms: _113  and  _116
REMARK   46  A    between atoms: _118  and  _120
REMARK   47  A    between atoms: _120  and  _121
REMARK   48  A    between atoms: _120  and  _123
REMARK   49  A    between atoms: _123  and  _124
REMARK   50  A    between atoms: _129  and  _131
REMARK   51  A    between atoms: _131  and  _132
REMARK   52  A    between atoms: _135  and  _137
REMARK   53  A    between atoms: _137  and  _138
REMARK   54  A    between atoms: _137  and  _140
REMARK   55  A    between atoms: _140  and  _141
REMARK   56  A    between atoms: _143  and  _145
REMARK   57  A    between atoms: _145  and  _146
REMARK   58  A    between atoms: _149  and  _151
REMARK   59  A    between atoms: _151  and  _152
REMARK   60  A    between atoms: _151  and  _154
REMARK   61  A    between atoms: _154  and  _155
REMARK   62  A    between atoms: _165  and  _167
REMARK   63  A    between atoms: _167  and  _168
REMARK   64  A    between atoms: _167  and  _170
REMARK   65  A    between atoms: _170  and  _171
REMARK   66  A    between atoms: _174  and  _176
REMARK   67  A    between atoms: _176  and  _177
REMARK   68  A    between atoms: _176  and  _179
REMARK   69  A    between atoms: _179  and  _180
REMARK   70  A    between atoms: _185  and  _186
REMARK   71  A    between atoms: _188  and  _190
REMARK   72  A    between atoms: _190  and  _191
REMARK   73  A    between atoms: _190  and  _193
REMARK   74  A    between atoms: _193  and  _194
REMARK   75  A    between atoms: _194  and  _195
REMARK   76  A    between atoms: _195  and  _196
REMARK   77  A    between atoms: _205  and  _207
REMARK   78  A    between atoms: _207  and  _208
REMARK   79  A    between atoms: _207  and  _210
REMARK   80  A    between atoms: _210  and  _211
REMARK   81  A    between atoms: _214  and  _216
REMARK   82  A    between atoms: _216  and  _217
REMARK   83  A    between atoms: _216  and  _219
REMARK   84  A    between atoms: _219  and  _220
REMARK   85  A    between atoms: _220  and  _221
REMARK   86  A    between atoms: _221  and  _222
REMARK   87  A    between atoms: _222  and  _223
REMARK   88  A    between atoms: _227  and  _229
REMARK   89  A    between atoms: _229  and  _230
REMARK   90  A    between atoms: _229  and  _232
REMARK   91  A    between atoms: _232  and  _233
REMARK   92  A    between atoms: _233  and  _234
REMARK   93  A    between atoms: _239  and  _241
REMARK   94  A    between atoms: _241  and  _242
REMARK   95  A    between atoms: _241  and  _244
REMARK   96  A    between atoms: _244  and  _245
REMARK   97  A    between atoms: _245  and  _246
REMARK   98  A    between atoms: _246  and  _247
REMARK   99  A    between atoms: _256  and  _258
REMARK  100  A    between atoms: _258  and  _259
REMARK  101  A    between atoms: _258  and  _261
REMARK  102  A    between atoms: _261  and  _262
REMARK  103  A    between atoms: _262  and  _263
REMARK  104  A    between atoms: _265  and  _267
REMARK  105  A    between atoms: _267  and  _268
REMARK  106  A    between atoms: _267  and  _270
REMARK  107  A    between atoms: _270  and  _271
REMARK  108  A    between atoms: _274  and  _276
REMARK  109  A    between atoms: _276  and  _277
REMARK  110  A    between atoms: _276  and  _279
REMARK  111  A    between atoms: _279  and  _280
REMARK  112  A    between atoms: _280  and  _281
REMARK  113  A    between atoms: _286  and  _288
REMARK  114  A    between atoms: _288  and  _289
REMARK  115  A    between atoms: _288  and  _291
REMARK  116  A    between atoms: _291  and  _292
REMARK  117  A    between atoms: _295  and  _297
REMARK  118  A    between atoms: _297  and  _298
REMARK  119  A    between atoms: _297  and  _300
REMARK  120  A    between atoms: _300  and  _301
REMARK  121  A    between atoms: _303  and  _305
REMARK  122  A    between atoms: _305  and  _306
REMARK  123  A    between atoms: _305  and  _308
REMARK  124  A    between atoms: _308  and  _309
REMARK  125  A    between atoms: _312  and  _314
REMARK  126  A    between atoms: _314  and  _315
REMARK  127  A    between atoms: _314  and  _317
REMARK  128  A    between atoms: _320  and  _322
REMARK  129  A    between atoms: _322  and  _323
REMARK  130  A    between atoms: _322  and  _325
REMARK  131  A    between atoms: _325  and  _326
REMARK  132  A    between atoms: _331  and  _333
REMARK  133  A    between atoms: _344  and  _347
REMARK  134  A    between atoms: _347  and  _348
REMARK  135  A    between atoms: _348  and  _349
REMARK  136  A    between atoms: _354  and  _357
REMARK  137  A    between atoms: _357  and  _358
REMARK  138  A    between atoms: _358  and  _359
REMARK  139  A    between atoms: _368  and  _369
REMARK  140  A    between atoms: _377  and  _379
REMARK  141  A    between atoms: _379  and  _380
REMARK  142  A    between atoms: _379  and  _382
REMARK  143  A    between atoms: _382  and  _383
REMARK  144  A    between atoms: _386  and  _388
REMARK  145  A    between atoms: _388  and  _389
REMARK  146  A    between atoms: _388  and  _391
REMARK  147  A    between atoms: _391  and  _392
REMARK  148  A    between atoms: _397  and  _398
REMARK  149  A    between atoms: _400  and  _402
REMARK  150  A    between atoms: _402  and  _403
REMARK  151  A    between atoms: _402  and  _405
REMARK  152  A    between atoms: _405  and  _406
REMARK  153  A    between atoms: _411  and  _412
REMARK  154  A    between atoms: _414  and  _416
REMARK  155  A    between atoms: _416  and  _417
REMARK  156  A    between atoms: _416  and  _419
REMARK  157  A    between atoms: _419  and  _420
REMARK  158  A    between atoms: _425  and  _426
REMARK  159  A    between atoms: _428  and  _430
REMARK  160  A    between atoms: _430  and  _431
REMARK  161  A    between atoms: _430  and  _433
REMARK  162  A    between atoms: _433  and  _434
REMARK  163  A    between atoms: _434  and  _435
REMARK  164  A    between atoms: _435  and  _436
REMARK  165  A    between atoms: _445  and  _447
REMARK  166  A    between atoms: _447  and  _448
REMARK  167  A    between atoms: _447  and  _450
REMARK  168  A    between atoms: _450  and  _451
REMARK  169  A    between atoms: _451  and  _452
REMARK  170  A    between atoms: _452  and  _453
REMARK  171  A    between atoms: _462  and  _464
REMARK  172  A    between atoms: _464  and  _465
REMARK  173  A    between atoms: _467  and  _469
REMARK  174  A    between atoms: _469  and  _470
REMARK  175  A    between atoms: _473  and  _475
REMARK  176  A    between atoms: _475  and  _476
REMARK  177  A    between atoms: _475  and  _478
REMARK  178  A    between atoms: _478  and  _479
REMARK  179  A    between atoms: _485  and  _486
REMARK  180  A    between atoms: _491  and  _493
REMARK  181  A    between atoms: _493  and  _494
REMARK  182  A    between atoms: _496  and  _498
REMARK  183  A    between atoms: _498  and  _499
REMARK  184  A    between atoms: _498  and  _501
REMARK  185  A    between atoms: _501  and  _502
REMARK  186  A    between atoms: _508  and  _510
REMARK  187  A    between atoms: _510  and  _511
REMARK  188  A    between atoms: _510  and  _513
REMARK  189  A    between atoms: _513  and  _514
REMARK  190  A    between atoms: _519  and  _521
REMARK  191  A    between atoms: _521  and  _522
REMARK  192  A    between atoms: _521  and  _524
REMARK  193  A    between atoms: _524  and  _525
REMARK  194  A    between atoms: _525  and  _526
REMARK  195  A    between atoms: _526  and  _527
REMARK  196  A    between atoms: _527  and  ZN_792
REMARK  197  A    between atoms: _529  and  _531
REMARK  198  A    between atoms: _531  and  _532
REMARK  199  A    between atoms: _535  and  _537
REMARK  200  A    between atoms: _537  and  _538
REMARK  201  A    between atoms: _540  and  _542
REMARK  202  A    between atoms: _542  and  _543
REMARK  203  A    between atoms: _542  and  _545
REMARK  204  A    between atoms: _545  and  _546
REMARK  205  A    between atoms: _549  and  _551
REMARK  206  A    between atoms: _551  and  _552
REMARK  207  A    between atoms: _551  and  _554
REMARK  208  A    between atoms: _557  and  _559
REMARK  209  A    between atoms: _559  and  _560
REMARK  210  A    between atoms: _563  and  _565
REMARK  211  A    between atoms: _565  and  _566
REMARK  212  A    between atoms: _565  and  _568
REMARK  213  A    between atoms: _568  and  _569
REMARK  214  A    between atoms: _572  and  _574
REMARK  215  A    between atoms: _574  and  _575
REMARK  216  A    between atoms: _574  and  _577
REMARK  217  A    between atoms: _577  and  _578
REMARK  218  A    between atoms: _578  and  _579
REMARK  219  A    between atoms: _582  and  _584
REMARK  220  A    between atoms: _584  and  _585
REMARK  221  A    between atoms: _584  and  _587
REMARK  222  A    between atoms: _587  and  _588
REMARK  223  A    between atoms: _588  and  _589
REMARK  224  A    between atoms: _589  and  _590
REMARK  225  A    between atoms: _590  and  _591
REMARK  226  A    between atoms: _595  and  _597
REMARK  227  A    between atoms: _597  and  _598
REMARK  228  A    between atoms: _597  and  _600
REMARK  229  A    between atoms: _600  and  _601
REMARK  230  A    between atoms: _607  and  _609
REMARK  231  A    between atoms: _609  and  _610
REMARK  232  A    between atoms: _609  and  _612
REMARK  233  A    between atoms: _612  and  _613
REMARK  234  A    between atoms: _619  and  _621
REMARK  235  A    between atoms: _621  and  _622
REMARK  236  A    between atoms: _624  and  _626
REMARK  237  A    between atoms: _626  and  _627
REMARK  238  A    between atoms: _626  and  _629
REMARK  239  A    between atoms: _632  and  _634
REMARK  240  A    between atoms: _634  and  _635
REMARK  241  A    between atoms: _634  and  _637
REMARK  242  A    between atoms: _637  and  _638
REMARK  243  A    between atoms: _638  and  _639
REMARK  244  A    between atoms: _639  and  _640
REMARK  245  A    between atoms: _640  and  _641
REMARK  246  A    between atoms: _645  and  _647
REMARK  247  A    between atoms: _647  and  _648
REMARK  248  A    between atoms: _647  and  _650
REMARK  249  A    between atoms: _650  and  _651
REMARK  250  A    between atoms: _657  and  _659
REMARK  251  A    between atoms: _659  and  _660
REMARK  252  A    between atoms: _659  and  _662
REMARK  253  A    between atoms: _662  and  _663
REMARK  254  A    between atoms: _668  and  _670
REMARK  255  A    between atoms: _670  and  _671
REMARK  256  A    between atoms: _670  and  _673
REMARK  257  A    between atoms: _673  and  _674
REMARK  258  A    between atoms: _679  and  _681
REMARK  259  A    between atoms: _681  and  _682
REMARK  260  A    between atoms: _681  and  _684
REMARK  261  A    between atoms: _687  and  _689
REMARK  262  A    between atoms: _689  and  _690
REMARK  263  A    between atoms: _689  and  _692
REMARK  264  A    between atoms: _692  and  _693
REMARK  265  A    between atoms: _697  and  _698
REMARK  266  A    between atoms: _703  and  _705
REMARK  267  A    between atoms: _705  and  _706
REMARK  268  A    between atoms: _705  and  _708
REMARK  269  A    between atoms: _708  and  _709
REMARK  270  A    between atoms: _714  and  _715
REMARK  271  A    between atoms: _717  and  _719
REMARK  272  A    between atoms: _719  and  _720
REMARK  273  A    between atoms: _719  and  _722
REMARK  274  A    between atoms: _722  and  _723
REMARK  275  A    between atoms: _723  and  _724
REMARK  276  A    between atoms: _724  and  _725
REMARK  277  A    between atoms: _734  and  _736
REMARK  278  A    between atoms: _736  and  _737
REMARK  279  A    between atoms: _736  and  _739
REMARK  280  A    between atoms: _739  and  _740
REMARK  281  A    between atoms: _745  and  _746
REMARK  282  A    between atoms: _748  and  _750
REMARK  283  A    between atoms: _750  and  _751
REMARK  284  A    between atoms: _750  and  _753
REMARK  285  A    between atoms: _753  and  _754
REMARK  286  A    between atoms: _760  and  _762
REMARK  287  A    between atoms: _762  and  _763
REMARK  288  A    between atoms: _762  and  _765
REMARK  289  A    between atoms: _765  and  _766
REMARK  290  A    between atoms: _768  and  _770
REMARK  291  A    between atoms: _770  and  _771
REMARK  292  A    between atoms: _770  and  _773
REMARK  293  A    between atoms: _773  and  _774
REMARK  294  A    between atoms: _780  and  _782
REMARK  295  A    between atoms: _782  and  _783
REMARK  296  A    between atoms: _782  and  _785
REMARK  297  A    between atoms: _785  and  _786
REMARK  298  A    between atoms: _786  and  _787
REMARK                            x       y       z     vdW  Elec       q    Type
REMARK                         _______ _______ _______ _____ _____    ______ ____
ROOT
ATOM      1  O   HOH     1       4.567 -20.076 -17.168  0.00  0.00    +0.000 OA
ENDROOT
TORSDOF 0
REMARK  Name = ../refined-set-2016/4ca6/4ca6_pocket.pdb
REMARK  298 active torsions:
REMARK  status: ('A' for Active; 'I' for Inactive)
REMARK    1  A    between atoms: _1  and  _3
REMARK    2  A    between atoms: _3  and  _4
REMARK    3  A    between atoms: _3  and  _6
REMARK    4  A    between atoms: _6  and  _7
REMARK    5  A    between atoms: _10  and  _12
REMARK    6  A    between atoms: _12  and  _13
REMARK    7  A    between atoms: _12  and  _15
REMARK    8  A    between atoms: _15  and  _16
REMARK    9  A    between atoms: _18  and  _20
REMARK   10  A    between atoms: _20  and  _21
REMARK   11  A    between atoms: _20  and  _23
REMARK   12  A    between atoms: _23  and  _24
REMARK   13  A    between atoms: _29  and  _30
REMARK   14  A    between atoms: _32  and  _34
REMARK   15  A    between atoms: _34  and  _35
REMARK   16  A    between atoms: _34  and  _37
REMARK   17  A    between atoms: _37  and  _38
REMARK   18  A    between atoms: _48  and  _50
REMARK   19  A    between atoms: _50  and  _51
REMARK   20  A    between atoms: _50  and  _53
REMARK   21  A    between atoms: _53  and  _54
REMARK   22  A    between atoms: _57  and  _59
REMARK   23  A    between atoms: _59  and  _60
REMARK   24  A    between atoms: _59  and  _62
REMARK   25  A    between atoms: _62  and  _63
REMARK   26  A    between atoms: _73  and  _75
REMARK   27  A    between atoms: _75  and  _76
REMARK   28  A    between atoms: _75  and  _78
REMARK   29  A    between atoms: _78  and  _79
REMARK   30  A    between atoms: _79  and  _80
REMARK   31  A    between atoms: _85  and  _87
REMARK   32  A    between atoms: _87  and  _88
REMARK   33  A    between atoms: _87  and  _90
REMARK   34  A    between atoms: _90  and  _91
REMARK   35  A    between atoms: _93  and  _95
REMARK   36  A    between atoms: _95  and  _96
REMARK   37  A    between atoms: _95  and  _98
REMARK   38  A    between atoms: _98  and  _99
REMARK   39  A    between atoms: _99  and  _100
REMARK   40  A    between atoms: _103  and  _105
REMARK   41  A    between atoms: _105  and  _106
REMARK   42  A    between atoms: _105  and  _108
REMARK   43  A    between atoms: _111  and  _113
REMARK   44  A    between atoms: _113  and  _114
REMARK   45  A    between atoms: _113  and  _116
REMARK   46  A    between atoms: _118  and  _120
REMARK   47  A    between atoms: _120  and  _121
REMARK   48  A    between atoms: _120  and  _123
REMARK   49  A    between atoms: _123  and  _124
REMARK   50  A    between atoms: _129  and  _131
REMARK   51  A    between atoms: _131  and  _132
REMARK   52  A    between atoms: _135  and  _137
REMARK   53  A    between atoms: _137  and  _138
REMARK   54  A    between atoms: _137  and  _140
REMARK   55  A    between atoms: _140  and  _141
REMARK   56  A    between atoms: _143  and  _145
REMARK   57  A    between atoms: _145  and  _146
REMARK   58  A    between atoms: _149  and  _151
REMARK   59  A    between atoms: _151  and  _152
REMARK   60  A    between atoms: _151  and  _154
REMARK   61  A    between atoms: _154  and  _155
REMARK   62  A    between atoms: _165  and  _167
REMARK   63  A    between atoms: _167  and  _168
REMARK   64  A    between atoms: _167  and  _170
REMARK   65  A    between atoms: _170  and  _171
REMARK   66  A    between atoms: _174  and  _176
REMARK   67  A    between atoms: _176  and  _177
REMARK   68  A    between atoms: _176  and  _179
REMARK   69  A    between atoms: _179  and  _180
REMARK   70  A    between atoms: _185  and  _186
REMARK   71  A    between atoms: _188  and  _190
REMARK   72  A    between atoms: _190  and  _191
REMARK   73  A    between atoms: _190  and  _193
REMARK   74  A    between atoms: _193  and  _194
REMARK   75  A    between atoms: _194  and  _195
REMARK   76  A    between atoms: _195  and  _196
REMARK   77  A    between atoms: _205  and  _207
REMARK   78  A    between atoms: _207  and  _208
REMARK   79  A    between atoms: _207  and  _210
REMARK   80  A    between atoms: _210  and  _211
REMARK   81  A    between atoms: _214  and  _216
REMARK   82  A    between atoms: _216  and  _217
REMARK   83  A    between atoms: _216  and  _219
REMARK   84  A    between atoms: _219  and  _220
REMARK   85  A    between atoms: _220  and  _221
REMARK   86  A    between atoms: _221  and  _222
REMARK   87  A    between atoms: _222  and  _223
REMARK   88  A    between atoms: _227  and  _229
REMARK   89  A    between atoms: _229  and  _230
REMARK   90  A    between atoms: _229  and  _232
REMARK   91  A    between atoms: _232  and  _233
REMARK   92  A    between atoms: _233  and  _234
REMARK   93  A    between atoms: _239  and  _241
REMARK   94  A    between atoms: _241  and  _242
REMARK   95  A    between atoms: _241  and  _244
REMARK   96  A    between atoms: _244  and  _245
REMARK   97  A    between atoms: _245  and  _246
REMARK   98  A    between atoms: _246  and  _247
REMARK   99  A    between atoms: _256  and  _258
REMARK  100  A    between atoms: _258  and  _259
REMARK  101  A    between atoms: _258  and  _261
REMARK  102  A    between atoms: _261  and  _262
REMARK  103  A    between atoms: _262  and  _263
REMARK  104  A    between atoms: _265  and  _267
REMARK  105  A    between atoms: _267  and  _268
REMARK  106  A    between atoms: _267  and  _270
REMARK  107  A    between atoms: _270  and  _271
REMARK  108  A    between atoms: _274  and  _276
REMARK  109  A    between atoms: _276  and  _277
REMARK  110  A    between atoms: _276  and  _279
REMARK  111  A    between atoms: _279  and  _280
REMARK  112  A    between atoms: _280  and  _281
REMARK  113  A    between atoms: _286  and  _288
REMARK  114  A    between atoms: _288  and  _289
REMARK  115  A    between atoms: _288  and  _291
REMARK  116  A    between atoms: _291  and  _292
REMARK  117  A    between atoms: _295  and  _297
REMARK  118  A    between atoms: _297  and  _298
REMARK  119  A    between atoms: _297  and  _300
REMARK  120  A    between atoms: _300  and  _301
REMARK  121  A    between atoms: _303  and  _305
REMARK  122  A    between atoms: _305  and  _306
REMARK  123  A    between atoms: _305  and  _308
REMARK  124  A    between atoms: _308  and  _309
REMARK  125  A    between atoms: _312  and  _314
REMARK  126  A    between atoms: _314  and  _315
REMARK  127  A    between atoms: _314  and  _317
REMARK  128  A    between atoms: _320  and  _322
REMARK  129  A    between atoms: _322  and  _323
REMARK  130  A    between atoms: _322  and  _325
REMARK  131  A    between atoms: _325  and  _326
REMARK  132  A    between atoms: _331  and  _333
REMARK  133  A    between atoms: _344  and  _347
REMARK  134  A    between atoms: _347  and  _348
REMARK  135  A    between atoms: _348  and  _349
REMARK  136  A    between atoms: _354  and  _357
REMARK  137  A    between atoms: _357  and  _358
REMARK  138  A    between atoms: _358  and  _359
REMARK  139  A    between atoms: _368  and  _369
REMARK  140  A    between atoms: _377  and  _379
REMARK  141  A    between atoms: _379  and  _380
REMARK  142  A    between atoms: _379  and  _382
REMARK  143  A    between atoms: _382  and  _383
REMARK  144  A    between atoms: _386  and  _388
REMARK  145  A    between atoms: _388  and  _389
REMARK  146  A    between atoms: _388  and  _391
REMARK  147  A    between atoms: _391  and  _392
REMARK  148  A    between atoms: _397  and  _398
REMARK  149  A    between atoms: _400  and  _402
REMARK  150  A    between atoms: _402  and  _403
REMARK  151  A    between atoms: _402  and  _405
REMARK  152  A    between atoms: _405  and  _406
REMARK  153  A    between atoms: _411  and  _412
REMARK  154  A    between atoms: _414  and  _416
REMARK  155  A    between atoms: _416  and  _417
REMARK  156  A    between atoms: _416  and  _419
REMARK  157  A    between atoms: _419  and  _420
REMARK  158  A    between atoms: _425  and  _426
REMARK  159  A    between atoms: _428  and  _430
REMARK  160  A    between atoms: _430  and  _431
REMARK  161  A    between atoms: _430  and  _433
REMARK  162  A    between atoms: _433  and  _434
REMARK  163  A    between atoms: _434  and  _435
REMARK  164  A    between atoms: _435  and  _436
REMARK  165  A    between atoms: _445  and  _447
REMARK  166  A    between atoms: _447  and  _448
REMARK  167  A    between atoms: _447  and  _450
REMARK  168  A    between atoms: _450  and  _451
REMARK  169  A    between atoms: _451  and  _452
REMARK  170  A    between atoms: _452  and  _453
REMARK  171  A    between atoms: _462  and  _464
REMARK  172  A    between atoms: _464  and  _465
REMARK  173  A    between atoms: _467  and  _469
REMARK  174  A    between atoms: _469  and  _470
REMARK  175  A    between atoms: _473  and  _475
REMARK  176  A    between atoms: _475  and  _476
REMARK  177  A    between atoms: _475  and  _478
REMARK  178  A    between atoms: _478  and  _479
REMARK  179  A    between atoms: _485  and  _486
REMARK  180  A    between atoms: _491  and  _493
REMARK  181  A    between atoms: _493  and  _494
REMARK  182  A    between atoms: _496  and  _498
REMARK  183  A    between atoms: _498  and  _499
REMARK  184  A    between atoms: _498  and  _501
REMARK  185  A    between atoms: _501  and  _502
REMARK  186  A    between atoms: _508  and  _510
REMARK  187  A    between atoms: _510  and  _511
REMARK  188  A    between atoms: _510  and  _513
REMARK  189  A    between atoms: _513  and  _514
REMARK  190  A    between atoms: _519  and  _521
REMARK  191  A    between atoms: _521  and  _522
REMARK  192  A    between atoms: _521  and  _524
REMARK  193  A    between atoms: _524  and  _525
REMARK  194  A    between atoms: _525  and  _526
REMARK  195  A    between atoms: _526  and  _527
REMARK  196  A    between atoms: _527  and  ZN_792
REMARK  197  A    between atoms: _529  and  _531
REMARK  198  A    between atoms: _531  and  _532
REMARK  199  A    between atoms: _535  and  _537
REMARK  200  A    between atoms: _537  and  _538
REMARK  201  A    between atoms: _540  and  _542
REMARK  202  A    between atoms: _542  and  _543
REMARK  203  A    between atoms: _542  and  _545
REMARK  204  A    between atoms: _545  and  _546
REMARK  205  A    between atoms: _549  and  _551
REMARK  206  A    between atoms: _551  and  _552
REMARK  207  A    between atoms: _551  and  _554
REMARK  208  A    between atoms: _557  and  _559
REMARK  209  A    between atoms: _559  and  _560
REMARK  210  A    between atoms: _563  and  _565
REMARK  211  A    between atoms: _565  and  _566
REMARK  212  A    between atoms: _565  and  _568
REMARK  213  A    between atoms: _568  and  _569
REMARK  214  A    between atoms: _572  and  _574
REMARK  215  A    between atoms: _574  and  _575
REMARK  216  A    between atoms: _574  and  _577
REMARK  217  A    between atoms: _577  and  _578
REMARK  218  A    between atoms: _578  and  _579
REMARK  219  A    between atoms: _582  and  _584
REMARK  220  A    between atoms: _584  and  _585
REMARK  221  A    between atoms: _584  and  _587
REMARK  222  A    between atoms: _587  and  _588
REMARK  223  A    between atoms: _588  and  _589
REMARK  224  A    between atoms: _589  and  _590
REMARK  225  A    between atoms: _590  and  _591
REMARK  226  A    between atoms: _595  and  _597
REMARK  227  A    between atoms: _597  and  _598
REMARK  228  A    between atoms: _597  and  _600
REMARK  229  A    between atoms: _600  and  _601
REMARK  230  A    between atoms: _607  and  _609
REMARK  231  A    between atoms: _609  and  _610
REMARK  232  A    between atoms: _609  and  _612
REMARK  233  A    between atoms: _612  and  _613
REMARK  234  A    between atoms: _619  and  _621
REMARK  235  A    between atoms: _621  and  _622
REMARK  236  A    between atoms: _624  and  _626
REMARK  237  A    between atoms: _626  and  _627
REMARK  238  A    between atoms: _626  and  _629
REMARK  239  A    between atoms: _632  and  _634
REMARK  240  A    between atoms: _634  and  _635
REMARK  241  A    between atoms: _634  and  _637
REMARK  242  A    between atoms: _637  and  _638
REMARK  243  A    between atoms: _638  and  _639
REMARK  244  A    between atoms: _639  and  _640
REMARK  245  A    between atoms: _640  and  _641
REMARK  246  A    between atoms: _645  and  _647
REMARK  247  A    between atoms: _647  and  _648
REMARK  248  A    between atoms: _647  and  _650
REMARK  249  A    between atoms: _650  and  _651
REMARK  250  A    between atoms: _657  and  _659
REMARK  251  A    between atoms: _659  and  _660
REMARK  252  A    between atoms: _659  and  _662
REMARK  253  A    between atoms: _662  and  _663
REMARK  254  A    between atoms: _668  and  _670
REMARK  255  A    between atoms: _670  and  _671
REMARK  256  A    between atoms: _670  and  _673
REMARK  257  A    between atoms: _673  and  _674
REMARK  258  A    between atoms: _679  and  _681
REMARK  259  A    between atoms: _681  and  _682
REMARK  260  A    between atoms: _681  and  _684
REMARK  261  A    between atoms: _687  and  _689
REMARK  262  A    between atoms: _689  and  _690
REMARK  263  A    between atoms: _689  and  _692
REMARK  264  A    between atoms: _692  and  _693
REMARK  265  A    between atoms: _697  and  _698
REMARK  266  A    between atoms: _703  and  _705
REMARK  267  A    between atoms: _705  and  _706
REMARK  268  A    between atoms: _705  and  _708
REMARK  269  A    between atoms: _708  and  _709
REMARK  270  A    between atoms: _714  and  _715
REMARK  271  A    between atoms: _717  and  _719
REMARK  272  A    between atoms: _719  and  _720
REMARK  273  A    between atoms: _719  and  _722
REMARK  274  A    between atoms: _722  and  _723
REMARK  275  A    between atoms: _723  and  _724
REMARK  276  A    between atoms: _724  and  _725
REMARK  277  A    between atoms: _734  and  _736
REMARK  278  A    between atoms: _736  and  _737
REMARK  279  A    between atoms: _736  and  _739
REMARK  280  A    between atoms: _739  and  _740
REMARK  281  A    between atoms: _745  and  _746
REMARK  282  A    between atoms: _748  and  _750
REMARK  283  A    between atoms: _750  and  _751
REMARK  284  A    between atoms: _750  and  _753
REMARK  285  A    between atoms: _753  and  _754
REMARK  286  A    between atoms: _760  and  _762
REMARK  287  A    between atoms: _762  and  _763
REMARK  288  A    between atoms: _762  and  _765
REMARK  289  A    between atoms: _765  and  _766
REMARK  290  A    between atoms: _768  and  _770
REMARK  291  A    between atoms: _770  and  _771
REMARK  292  A    between atoms: _770  and  _773
REMARK  293  A    between atoms: _773  and  _774
REMARK  294  A    between atoms: _780  and  _782
REMARK  295  A    between atoms: _782  and  _783
REMARK  296  A    between atoms: _782  and  _785
REMARK  297  A    between atoms: _785  and  _786
REMARK  298  A    between atoms: _786  and  _787
REMARK                            x       y       z     vdW  Elec       q    Type
REMARK                         _______ _______ _______ _____ _____    ______ ____
ROOT
ATOM      1  O   HOH     1      -3.224 -17.145 -19.499  0.00  0.00    +0.000 OA
ENDROOT
TORSDOF 0
REMARK  Name = ../refined-set-2016/4ca6/4ca6_pocket.pdb
REMARK  298 active torsions:
REMARK  status: ('A' for Active; 'I' for Inactive)
REMARK    1  A    between atoms: _1  and  _3
REMARK    2  A    between atoms: _3  and  _4
REMARK    3  A    between atoms: _3  and  _6
REMARK    4  A    between atoms: _6  and  _7
REMARK    5  A    between atoms: _10  and  _12
REMARK    6  A    between atoms: _12  and  _13
REMARK    7  A    between atoms: _12  and  _15
REMARK    8  A    between atoms: _15  and  _16
REMARK    9  A    between atoms: _18  and  _20
REMARK   10  A    between atoms: _20  and  _21
REMARK   11  A    between atoms: _20  and  _23
REMARK   12  A    between atoms: _23  and  _24
REMARK   13  A    between atoms: _29  and  _30
REMARK   14  A    between atoms: _32  and  _34
REMARK   15  A    between atoms: _34  and  _35
REMARK   16  A    between atoms: _34  and  _37
REMARK   17  A    between atoms: _37  and  _38
REMARK   18  A    between atoms: _48  and  _50
REMARK   19  A    between atoms: _50  and  _51
REMARK   20  A    between atoms: _50  and  _53
REMARK   21  A    between atoms: _53  and  _54
REMARK   22  A    between atoms: _57  and  _59
REMARK   23  A    between atoms: _59  and  _60
REMARK   24  A    between atoms: _59  and  _62
REMARK   25  A    between atoms: _62  and  _63
REMARK   26  A    between atoms: _73  and  _75
REMARK   27  A    between atoms: _75  and  _76
REMARK   28  A    between atoms: _75  and  _78
REMARK   29  A    between atoms: _78  and  _79
REMARK   30  A    between atoms: _79  and  _80
REMARK   31  A    between atoms: _85  and  _87
REMARK   32  A    between atoms: _87  and  _88
REMARK   33  A    between atoms: _87  and  _90
REMARK   34  A    between atoms: _90  and  _91
REMARK   35  A    between atoms: _93  and  _95
REMARK   36  A    between atoms: _95  and  _96
REMARK   37  A    between atoms: _95  and  _98
REMARK   38  A    between atoms: _98  and  _99
REMARK   39  A    between atoms: _99  and  _100
REMARK   40  A    between atoms: _103  and  _105
REMARK   41  A    between atoms: _105  and  _106
REMARK   42  A    between atoms: _105  and  _108
REMARK   43  A    between atoms: _111  and  _113
REMARK   44  A    between atoms: _113  and  _114
REMARK   45  A    between atoms: _113  and  _116
REMARK   46  A    between atoms: _118  and  _120
REMARK   47  A    between atoms: _120  and  _121
REMARK   48  A    between atoms: _120  and  _123
REMARK   49  A    between atoms: _123  and  _124
REMARK   50  A    between atoms: _129  and  _131
REMARK   51  A    between atoms: _131  and  _132
REMARK   52  A    between atoms: _135  and  _137
REMARK   53  A    between atoms: _137  and  _138
REMARK   54  A    between atoms: _137  and  _140
REMARK   55  A    between atoms: _140  and  _141
REMARK   56  A    between atoms: _143  and  _145
REMARK   57  A    between atoms: _145  and  _146
REMARK   58  A    between atoms: _149  and  _151
REMARK   59  A    between atoms: _151  and  _152
REMARK   60  A    between atoms: _151  and  _154
REMARK   61  A    between atoms: _154  and  _155
REMARK   62  A    between atoms: _165  and  _167
REMARK   63  A    between atoms: _167  and  _168
REMARK   64  A    between atoms: _167  and  _170
REMARK   65  A    between atoms: _170  and  _171
REMARK   66  A    between atoms: _174  and  _176
REMARK   67  A    between atoms: _176  and  _177
REMARK   68  A    between atoms: _176  and  _179
REMARK   69  A    between atoms: _179  and  _180
REMARK   70  A    between atoms: _185  and  _186
REMARK   71  A    between atoms: _188  and  _190
REMARK   72  A    between atoms: _190  and  _191
REMARK   73  A    between atoms: _190  and  _193
REMARK   74  A    between atoms: _193  and  _194
REMARK   75  A    between atoms: _194  and  _195
REMARK   76  A    between atoms: _195  and  _196
REMARK   77  A    between atoms: _205  and  _207
REMARK   78  A    between atoms: _207  and  _208
REMARK   79  A    between atoms: _207  and  _210
REMARK   80  A    between atoms: _210  and  _211
REMARK   81  A    between atoms: _214  and  _216
REMARK   82  A    between atoms: _216  and  _217
REMARK   83  A    between atoms: _216  and  _219
REMARK   84  A    between atoms: _219  and  _220
REMARK   85  A    between atoms: _220  and  _221
REMARK   86  A    between atoms: _221  and  _222
REMARK   87  A    between atoms: _222  and  _223
REMARK   88  A    between atoms: _227  and  _229
REMARK   89  A    between atoms: _229  and  _230
REMARK   90  A    between atoms: _229  and  _232
REMARK   91  A    between atoms: _232  and  _233
REMARK   92  A    between atoms: _233  and  _234
REMARK   93  A    between atoms: _239  and  _241
REMARK   94  A    between atoms: _241  and  _242
REMARK   95  A    between atoms: _241  and  _244
REMARK   96  A    between atoms: _244  and  _245
REMARK   97  A    between atoms: _245  and  _246
REMARK   98  A    between atoms: _246  and  _247
REMARK   99  A    between atoms: _256  and  _258
REMARK  100  A    between atoms: _258  and  _259
REMARK  101  A    between atoms: _258  and  _261
REMARK  102  A    between atoms: _261  and  _262
REMARK  103  A    between atoms: _262  and  _263
REMARK  104  A    between atoms: _265  and  _267
REMARK  105  A    between atoms: _267  and  _268
REMARK  106  A    between atoms: _267  and  _270
REMARK  107  A    between atoms: _270  and  _271
REMARK  108  A    between atoms: _274  and  _276
REMARK  109  A    between atoms: _276  and  _277
REMARK  110  A    between atoms: _276  and  _279
REMARK  111  A    between atoms: _279  and  _280
REMARK  112  A    between atoms: _280  and  _281
REMARK  113  A    between atoms: _286  and  _288
REMARK  114  A    between atoms: _288  and  _289
REMARK  115  A    between atoms: _288  and  _291
REMARK  116  A    between atoms: _291  and  _292
REMARK  117  A    between atoms: _295  and  _297
REMARK  118  A    between atoms: _297  and  _298
REMARK  119  A    between atoms: _297  and  _300
REMARK  120  A    between atoms: _300  and  _301
REMARK  121  A    between atoms: _303  and  _305
REMARK  122  A    between atoms: _305  and  _306
REMARK  123  A    between atoms: _305  and  _308
REMARK  124  A    between atoms: _308  and  _309
REMARK  125  A    between atoms: _312  and  _314
REMARK  126  A    between atoms: _314  and  _315
REMARK  127  A    between atoms: _314  and  _317
REMARK  128  A    between atoms: _320  and  _322
REMARK  129  A    between atoms: _322  and  _323
REMARK  130  A    between atoms: _322  and  _325
REMARK  131  A    between atoms: _325  and  _326
REMARK  132  A    between atoms: _331  and  _333
REMARK  133  A    between atoms: _344  and  _347
REMARK  134  A    between atoms: _347  and  _348
REMARK  135  A    between atoms: _348  and  _349
REMARK  136  A    between atoms: _354  and  _357
REMARK  137  A    between atoms: _357  and  _358
REMARK  138  A    between atoms: _358  and  _359
REMARK  139  A    between atoms: _368  and  _369
REMARK  140  A    between atoms: _377  and  _379
REMARK  141  A    between atoms: _379  and  _380
REMARK  142  A    between atoms: _379  and  _382
REMARK  143  A    between atoms: _382  and  _383
REMARK  144  A    between atoms: _386  and  _388
REMARK  145  A    between atoms: _388  and  _389
REMARK  146  A    between atoms: _388  and  _391
REMARK  147  A    between atoms: _391  and  _392
REMARK  148  A    between atoms: _397  and  _398
REMARK  149  A    between atoms: _400  and  _402
REMARK  150  A    between atoms: _402  and  _403
REMARK  151  A    between atoms: _402  and  _405
REMARK  152  A    between atoms: _405  and  _406
REMARK  153  A    between atoms: _411  and  _412
REMARK  154  A    between atoms: _414  and  _416
REMARK  155  A    between atoms: _416  and  _417
REMARK  156  A    between atoms: _416  and  _419
REMARK  157  A    between atoms: _419  and  _420
REMARK  158  A    between atoms: _425  and  _426
REMARK  159  A    between atoms: _428  and  _430
REMARK  160  A    between atoms: _430  and  _431
REMARK  161  A    between atoms: _430  and  _433
REMARK  162  A    between atoms: _433  and  _434
REMARK  163  A    between atoms: _434  and  _435
REMARK  164  A    between atoms: _435  and  _436
REMARK  165  A    between atoms: _445  and  _447
REMARK  166  A    between atoms: _447  and  _448
REMARK  167  A    between atoms: _447  and  _450
REMARK  168  A    between atoms: _450  and  _451
REMARK  169  A    between atoms: _451  and  _452
REMARK  170  A    between atoms: _452  and  _453
REMARK  171  A    between atoms: _462  and  _464
REMARK  172  A    between atoms: _464  and  _465
REMARK  173  A    between atoms: _467  and  _469
REMARK  174  A    between atoms: _469  and  _470
REMARK  175  A    between atoms: _473  and  _475
REMARK  176  A    between atoms: _475  and  _476
REMARK  177  A    between atoms: _475  and  _478
REMARK  178  A    between atoms: _478  and  _479
REMARK  179  A    between atoms: _485  and  _486
REMARK  180  A    between atoms: _491  and  _493
REMARK  181  A    between atoms: _493  and  _494
REMARK  182  A    between atoms: _496  and  _498
REMARK  183  A    between atoms: _498  and  _499
REMARK  184  A    between atoms: _498  and  _501
REMARK  185  A    between atoms: _501  and  _502
REMARK  186  A    between atoms: _508  and  _510
REMARK  187  A    between atoms: _510  and  _511
REMARK  188  A    between atoms: _510  and  _513
REMARK  189  A    between atoms: _513  and  _514
REMARK  190  A    between atoms: _519  and  _521
REMARK  191  A    between atoms: _521  and  _522
REMARK  192  A    between atoms: _521  and  _524
REMARK  193  A    between atoms: _524  and  _525
REMARK  194  A    between atoms: _525  and  _526
REMARK  195  A    between atoms: _526  and  _527
REMARK  196  A    between atoms: _527  and  ZN_792
REMARK  197  A    between atoms: _529  and  _531
REMARK  198  A    between atoms: _531  and  _532
REMARK  199  A    between atoms: _535  and  _537
REMARK  200  A    between atoms: _537  and  _538
REMARK  201  A    between atoms: _540  and  _542
REMARK  202  A    between atoms: _542  and  _543
REMARK  203  A    between atoms: _542  and  _545
REMARK  204  A    between atoms: _545  and  _546
REMARK  205  A    between atoms: _549  and  _551
REMARK  206  A    between atoms: _551  and  _552
REMARK  207  A    between atoms: _551  and  _554
REMARK  208  A    between atoms: _557  and  _559
REMARK  209  A    between atoms: _559  and  _560
REMARK  210  A    between atoms: _563  and  _565
REMARK  211  A    between atoms: _565  and  _566
REMARK  212  A    between atoms: _565  and  _568
REMARK  213  A    between atoms: _568  and  _569
REMARK  214  A    between atoms: _572  and  _574
REMARK  215  A    between atoms: _574  and  _575
REMARK  216  A    between atoms: _574  and  _577
REMARK  217  A    between atoms: _577  and  _578
REMARK  218  A    between atoms: _578  and  _579
REMARK  219  A    between atoms: _582  and  _584
REMARK  220  A    between atoms: _584  and  _585
REMARK  221  A    between atoms: _584  and  _587
REMARK  222  A    between atoms: _587  and  _588
REMARK  223  A    between atoms: _588  and  _589
REMARK  224  A    between atoms: _589  and  _590
REMARK  225  A    between atoms: _590  and  _591
REMARK  226  A    between atoms: _595  and  _597
REMARK  227  A    between atoms: _597  and  _598
REMARK  228  A    between atoms: _597  and  _600
REMARK  229  A    between atoms: _600  and  _601
REMARK  230  A    between atoms: _607  and  _609
REMARK  231  A    between atoms: _609  and  _610
REMARK  232  A    between atoms: _609  and  _612
REMARK  233  A    between atoms: _612  and  _613
REMARK  234  A    between atoms: _619  and  _621
REMARK  235  A    between atoms: _621  and  _622
REMARK  236  A    between atoms: _624  and  _626
REMARK  237  A    between atoms: _626  and  _627
REMARK  238  A    between atoms: _626  and  _629
REMARK  239  A    between atoms: _632  and  _634
REMARK  240  A    between atoms: _634  and  _635
REMARK  241  A    between atoms: _634  and  _637
REMARK  242  A    between atoms: _637  and  _638
REMARK  243  A    between atoms: _638  and  _639
REMARK  244  A    between atoms: _639  and  _640
REMARK  245  A    between atoms: _640  and  _641
REMARK  246  A    between atoms: _645  and  _647
REMARK  247  A    between atoms: _647  and  _648
REMARK  248  A    between atoms: _647  and  _650
REMARK  249  A    between atoms: _650  and  _651
REMARK  250  A    between atoms: _657  and  _659
REMARK  251  A    between atoms: _659  and  _660
REMARK  252  A    between atoms: _659  and  _662
REMARK  253  A    between atoms: _662  and  _663
REMARK  254  A    between atoms: _668  and  _670
REMARK  255  A    between atoms: _670  and  _671
REMARK  256  A    between atoms: _670  and  _673
REMARK  257  A    between atoms: _673  and  _674
REMARK  258  A    between atoms: _679  and  _681
REMARK  259  A    between atoms: _681  and  _682
REMARK  260  A    between atoms: _681  and  _684
REMARK  261  A    between atoms: _687  and  _689
REMARK  262  A    between atoms: _689  and  _690
REMARK  263  A    between atoms: _689  and  _692
REMARK  264  A    between atoms: _692  and  _693
REMARK  265  A    between atoms: _697  and  _698
REMARK  266  A    between atoms: _703  and  _705
REMARK  267  A    between atoms: _705  and  _706
REMARK  268  A    between atoms: _705  and  _708
REMARK  269  A    between atoms: _708  and  _709
REMARK  270  A    between atoms: _714  and  _715
REMARK  271  A    between atoms: _717  and  _719
REMARK  272  A    between atoms: _719  and  _720
REMARK  273  A    between atoms: _719  and  _722
REMARK  274  A    between atoms: _722  and  _723
REMARK  275  A    between atoms: _723  and  _724
REMARK  276  A    between atoms: _724  and  _725
REMARK  277  A    between atoms: _734  and  _736
REMARK  278  A    between atoms: _736  and  _737
REMARK  279  A    between atoms: _736  and  _739
REMARK  280  A    between atoms: _739  and  _740
REMARK  281  A    between atoms: _745  and  _746
REMARK  282  A    between atoms: _748  and  _750
REMARK  283  A    between atoms: _750  and  _751
REMARK  284  A    between atoms: _750  and  _753
REMARK  285  A    between atoms: _753  and  _754
REMARK  286  A    between atoms: _760  and  _762
REMARK  287  A    between atoms: _762  and  _763
REMARK  288  A    between atoms: _762  and  _765
REMARK  289  A    between atoms: _765  and  _766
REMARK  290  A    between atoms: _768  and  _770
REMARK  291  A    between atoms: _770  and  _771
REMARK  292  A    between atoms: _770  and  _773
REMARK  293  A    between atoms: _773  and  _774
REMARK  294  A    between atoms: _780  and  _782
REMARK  295  A    between atoms: _782  and  _783
REMARK  296  A    between atoms: _782  and  _785
REMARK  297  A    between atoms: _785  and  _786
REMARK  298  A    between atoms: _786  and  _787
REMARK                            x       y       z     vdW  Elec       q    Type
REMARK                         _______ _______ _______ _____ _____    ______ ____
ROOT
ATOM      1  O   HOH     1      10.894 -22.427 -19.322  0.00  0.00    +0.000 OA
ENDROOT
TORSDOF 0
REMARK  Name = ../refined-set-2016/4ca6/4ca6_pocket.pdb
REMARK  298 active torsions:
REMARK  status: ('A' for Active; 'I' for Inactive)
REMARK    1  A    between atoms: _1  and  _3
REMARK    2  A    between atoms: _3  and  _4
REMARK    3  A    between atoms: _3  and  _6
REMARK    4  A    between atoms: _6  and  _7
REMARK    5  A    between atoms: _10  and  _12
REMARK    6  A    between atoms: _12  and  _13
REMARK    7  A    between atoms: _12  and  _15
REMARK    8  A    between atoms: _15  and  _16
REMARK    9  A    between atoms: _18  and  _20
REMARK   10  A    between atoms: _20  and  _21
REMARK   11  A    between atoms: _20  and  _23
REMARK   12  A    between atoms: _23  and  _24
REMARK   13  A    between atoms: _29  and  _30
REMARK   14  A    between atoms: _32  and  _34
REMARK   15  A    between atoms: _34  and  _35
REMARK   16  A    between atoms: _34  and  _37
REMARK   17  A    between atoms: _37  and  _38
REMARK   18  A    between atoms: _48  and  _50
REMARK   19  A    between atoms: _50  and  _51
REMARK   20  A    between atoms: _50  and  _53
REMARK   21  A    between atoms: _53  and  _54
REMARK   22  A    between atoms: _57  and  _59
REMARK   23  A    between atoms: _59  and  _60
REMARK   24  A    between atoms: _59  and  _62
REMARK   25  A    between atoms: _62  and  _63
REMARK   26  A    between atoms: _73  and  _75
REMARK   27  A    between atoms: _75  and  _76
REMARK   28  A    between atoms: _75  and  _78
REMARK   29  A    between atoms: _78  and  _79
REMARK   30  A    between atoms: _79  and  _80
REMARK   31  A    between atoms: _85  and  _87
REMARK   32  A    between atoms: _87  and  _88
REMARK   33  A    between atoms: _87  and  _90
REMARK   34  A    between atoms: _90  and  _91
REMARK   35  A    between atoms: _93  and  _95
REMARK   36  A    between atoms: _95  and  _96
REMARK   37  A    between atoms: _95  and  _98
REMARK   38  A    between atoms: _98  and  _99
REMARK   39  A    between atoms: _99  and  _100
REMARK   40  A    between atoms: _103  and  _105
REMARK   41  A    between atoms: _105  and  _106
REMARK   42  A    between atoms: _105  and  _108
REMARK   43  A    between atoms: _111  and  _113
REMARK   44  A    between atoms: _113  and  _114
REMARK   45  A    between atoms: _113  and  _116
REMARK   46  A    between atoms: _118  and  _120
REMARK   47  A    between atoms: _120  and  _121
REMARK   48  A    between atoms: _120  and  _123
REMARK   49  A    between atoms: _123  and  _124
REMARK   50  A    between atoms: _129  and  _131
REMARK   51  A    between atoms: _131  and  _132
REMARK   52  A    between atoms: _135  and  _137
REMARK   53  A    between atoms: _137  and  _138
REMARK   54  A    between atoms: _137  and  _140
REMARK   55  A    between atoms: _140  and  _141
REMARK   56  A    between atoms: _143  and  _145
REMARK   57  A    between atoms: _145  and  _146
REMARK   58  A    between atoms: _149  and  _151
REMARK   59  A    between atoms: _151  and  _152
REMARK   60  A    between atoms: _151  and  _154
REMARK   61  A    between atoms: _154  and  _155
REMARK   62  A    between atoms: _165  and  _167
REMARK   63  A    between atoms: _167  and  _168
REMARK   64  A    between atoms: _167  and  _170
REMARK   65  A    between atoms: _170  and  _171
REMARK   66  A    between atoms: _174  and  _176
REMARK   67  A    between atoms: _176  and  _177
REMARK   68  A    between atoms: _176  and  _179
REMARK   69  A    between atoms: _179  and  _180
REMARK   70  A    between atoms: _185  and  _186
REMARK   71  A    between atoms: _188  and  _190
REMARK   72  A    between atoms: _190  and  _191
REMARK   73  A    between atoms: _190  and  _193
REMARK   74  A    between atoms: _193  and  _194
REMARK   75  A    between atoms: _194  and  _195
REMARK   76  A    between atoms: _195  and  _196
REMARK   77  A    between atoms: _205  and  _207
REMARK   78  A    between atoms: _207  and  _208
REMARK   79  A    between atoms: _207  and  _210
REMARK   80  A    between atoms: _210  and  _211
REMARK   81  A    between atoms: _214  and  _216
REMARK   82  A    between atoms: _216  and  _217
REMARK   83  A    between atoms: _216  and  _219
REMARK   84  A    between atoms: _219  and  _220
REMARK   85  A    between atoms: _220  and  _221
REMARK   86  A    between atoms: _221  and  _222
REMARK   87  A    between atoms: _222  and  _223
REMARK   88  A    between atoms: _227  and  _229
REMARK   89  A    between atoms: _229  and  _230
REMARK   90  A    between atoms: _229  and  _232
REMARK   91  A    between atoms: _232  and  _233
REMARK   92  A    between atoms: _233  and  _234
REMARK   93  A    between atoms: _239  and  _241
REMARK   94  A    between atoms: _241  and  _242
REMARK   95  A    between atoms: _241  and  _244
REMARK   96  A    between atoms: _244  and  _245
REMARK   97  A    between atoms: _245  and  _246
REMARK   98  A    between atoms: _246  and  _247
REMARK   99  A    between atoms: _256  and  _258
REMARK  100  A    between atoms: _258  and  _259
REMARK  101  A    between atoms: _258  and  _261
REMARK  102  A    between atoms: _261  and  _262
REMARK  103  A    between atoms: _262  and  _263
REMARK  104  A    between atoms: _265  and  _267
REMARK  105  A    between atoms: _267  and  _268
REMARK  106  A    between atoms: _267  and  _270
REMARK  107  A    between atoms: _270  and  _271
REMARK  108  A    between atoms: _274  and  _276
REMARK  109  A    between atoms: _276  and  _277
REMARK  110  A    between atoms: _276  and  _279
REMARK  111  A    between atoms: _279  and  _280
REMARK  112  A    between atoms: _280  and  _281
REMARK  113  A    between atoms: _286  and  _288
REMARK  114  A    between atoms: _288  and  _289
REMARK  115  A    between atoms: _288  and  _291
REMARK  116  A    between atoms: _291  and  _292
REMARK  117  A    between atoms: _295  and  _297
REMARK  118  A    between atoms: _297  and  _298
REMARK  119  A    between atoms: _297  and  _300
REMARK  120  A    between atoms: _300  and  _301
REMARK  121  A    between atoms: _303  and  _305
REMARK  122  A    between atoms: _305  and  _306
REMARK  123  A    between atoms: _305  and  _308
REMARK  124  A    between atoms: _308  and  _309
REMARK  125  A    between atoms: _312  and  _314
REMARK  126  A    between atoms: _314  and  _315
REMARK  127  A    between atoms: _314  and  _317
REMARK  128  A    between atoms: _320  and  _322
REMARK  129  A    between atoms: _322  and  _323
REMARK  130  A    between atoms: _322  and  _325
REMARK  131  A    between atoms: _325  and  _326
REMARK  132  A    between atoms: _331  and  _333
REMARK  133  A    between atoms: _344  and  _347
REMARK  134  A    between atoms: _347  and  _348
REMARK  135  A    between atoms: _348  and  _349
REMARK  136  A    between atoms: _354  and  _357
REMARK  137  A    between atoms: _357  and  _358
REMARK  138  A    between atoms: _358  and  _359
REMARK  139  A    between atoms: _368  and  _369
REMARK  140  A    between atoms: _377  and  _379
REMARK  141  A    between atoms: _379  and  _380
REMARK  142  A    between atoms: _379  and  _382
REMARK  143  A    between atoms: _382  and  _383
REMARK  144  A    between atoms: _386  and  _388
REMARK  145  A    between atoms: _388  and  _389
REMARK  146  A    between atoms: _388  and  _391
REMARK  147  A    between atoms: _391  and  _392
REMARK  148  A    between atoms: _397  and  _398
REMARK  149  A    between atoms: _400  and  _402
REMARK  150  A    between atoms: _402  and  _403
REMARK  151  A    between atoms: _402  and  _405
REMARK  152  A    between atoms: _405  and  _406
REMARK  153  A    between atoms: _411  and  _412
REMARK  154  A    between atoms: _414  and  _416
REMARK  155  A    between atoms: _416  and  _417
REMARK  156  A    between atoms: _416  and  _419
REMARK  157  A    between atoms: _419  and  _420
REMARK  158  A    between atoms: _425  and  _426
REMARK  159  A    between atoms: _428  and  _430
REMARK  160  A    between atoms: _430  and  _431
REMARK  161  A    between atoms: _430  and  _433
REMARK  162  A    between atoms: _433  and  _434
REMARK  163  A    between atoms: _434  and  _435
REMARK  164  A    between atoms: _435  and  _436
REMARK  165  A    between atoms: _445  and  _447
REMARK  166  A    between atoms: _447  and  _448
REMARK  167  A    between atoms: _447  and  _450
REMARK  168  A    between atoms: _450  and  _451
REMARK  169  A    between atoms: _451  and  _452
REMARK  170  A    between atoms: _452  and  _453
REMARK  171  A    between atoms: _462  and  _464
REMARK  172  A    between atoms: _464  and  _465
REMARK  173  A    between atoms: _467  and  _469
REMARK  174  A    between atoms: _469  and  _470
REMARK  175  A    between atoms: _473  and  _475
REMARK  176  A    between atoms: _475  and  _476
REMARK  177  A    between atoms: _475  and  _478
REMARK  178  A    between atoms: _478  and  _479
REMARK  179  A    between atoms: _485  and  _486
REMARK  180  A    between atoms: _491  and  _493
REMARK  181  A    between atoms: _493  and  _494
REMARK  182  A    between atoms: _496  and  _498
REMARK  183  A    between atoms: _498  and  _499
REMARK  184  A    between atoms: _498  and  _501
REMARK  185  A    between atoms: _501  and  _502
REMARK  186  A    between atoms: _508  and  _510
REMARK  187  A    between atoms: _510  and  _511
REMARK  188  A    between atoms: _510  and  _513
REMARK  189  A    between atoms: _513  and  _514
REMARK  190  A    between atoms: _519  and  _521
REMARK  191  A    between atoms: _521  and  _522
REMARK  192  A    between atoms: _521  and  _524
REMARK  193  A    between atoms: _524  and  _525
REMARK  194  A    between atoms: _525  and  _526
REMARK  195  A    between atoms: _526  and  _527
REMARK  196  A    between atoms: _527  and  ZN_792
REMARK  197  A    between atoms: _529  and  _531
REMARK  198  A    between atoms: _531  and  _532
REMARK  199  A    between atoms: _535  and  _537
REMARK  200  A    between atoms: _537  and  _538
REMARK  201  A    between atoms: _540  and  _542
REMARK  202  A    between atoms: _542  and  _543
REMARK  203  A    between atoms: _542  and  _545
REMARK  204  A    between atoms: _545  and  _546
REMARK  205  A    between atoms: _549  and  _551
REMARK  206  A    between atoms: _551  and  _552
REMARK  207  A    between atoms: _551  and  _554
REMARK  208  A    between atoms: _557  and  _559
REMARK  209  A    between atoms: _559  and  _560
REMARK  210  A    between atoms: _563  and  _565
REMARK  211  A    between atoms: _565  and  _566
REMARK  212  A    between atoms: _565  and  _568
REMARK  213  A    between atoms: _568  and  _569
REMARK  214  A    between atoms: _572  and  _574
REMARK  215  A    between atoms: _574  and  _575
REMARK  216  A    between atoms: _574  and  _577
REMARK  217  A    between atoms: _577  and  _578
REMARK  218  A    between atoms: _578  and  _579
REMARK  219  A    between atoms: _582  and  _584
REMARK  220  A    between atoms: _584  and  _585
REMARK  221  A    between atoms: _584  and  _587
REMARK  222  A    between atoms: _587  and  _588
REMARK  223  A    between atoms: _588  and  _589
REMARK  224  A    between atoms: _589  and  _590
REMARK  225  A    between atoms: _590  and  _591
REMARK  226  A    between atoms: _595  and  _597
REMARK  227  A    between atoms: _597  and  _598
REMARK  228  A    between atoms: _597  and  _600
REMARK  229  A    between atoms: _600  and  _601
REMARK  230  A    between atoms: _607  and  _609
REMARK  231  A    between atoms: _609  and  _610
REMARK  232  A    between atoms: _609  and  _612
REMARK  233  A    between atoms: _612  and  _613
REMARK  234  A    between atoms: _619  and  _621
REMARK  235  A    between atoms: _621  and  _622
REMARK  236  A    between atoms: _624  and  _626
REMARK  237  A    between atoms: _626  and  _627
REMARK  238  A    between atoms: _626  and  _629
REMARK  239  A    between atoms: _632  and  _634
REMARK  240  A    between atoms: _634  and  _635
REMARK  241  A    between atoms: _634  and  _637
REMARK  242  A    between atoms: _637  and  _638
REMARK  243  A    between atoms: _638  and  _639
REMARK  244  A    between atoms: _639  and  _640
REMARK  245  A    between atoms: _640  and  _641
REMARK  246  A    between atoms: _645  and  _647
REMARK  247  A    between atoms: _647  and  _648
REMARK  248  A    between atoms: _647  and  _650
REMARK  249  A    between atoms: _650  and  _651
REMARK  250  A    between atoms: _657  and  _659
REMARK  251  A    between atoms: _659  and  _660
REMARK  252  A    between atoms: _659  and  _662
REMARK  253  A    between atoms: _662  and  _663
REMARK  254  A    between atoms: _668  and  _670
REMARK  255  A    between atoms: _670  and  _671
REMARK  256  A    between atoms: _670  and  _673
REMARK  257  A    between atoms: _673  and  _674
REMARK  258  A    between atoms: _679  and  _681
REMARK  259  A    between atoms: _681  and  _682
REMARK  260  A    between atoms: _681  and  _684
REMARK  261  A    between atoms: _687  and  _689
REMARK  262  A    between atoms: _689  and  _690
REMARK  263  A    between atoms: _689  and  _692
REMARK  264  A    between atoms: _692  and  _693
REMARK  265  A    between atoms: _697  and  _698
REMARK  266  A    between atoms: _703  and  _705
REMARK  267  A    between atoms: _705  and  _706
REMARK  268  A    between atoms: _705  and  _708
REMARK  269  A    between atoms: _708  and  _709
REMARK  270  A    between atoms: _714  and  _715
REMARK  271  A    between atoms: _717  and  _719
REMARK  272  A    between atoms: _719  and  _720
REMARK  273  A    between atoms: _719  and  _722
REMARK  274  A    between atoms: _722  and  _723
REMARK  275  A    between atoms: _723  and  _724
REMARK  276  A    between atoms: _724  and  _725
REMARK  277  A    between atoms: _734  and  _736
REMARK  278  A    between atoms: _736  and  _737
REMARK  279  A    between atoms: _736  and  _739
REMARK  280  A    between atoms: _739  and  _740
REMARK  281  A    between atoms: _745  and  _746
REMARK  282  A    between atoms: _748  and  _750
REMARK  283  A    between atoms: _750  and  _751
REMARK  284  A    between atoms: _750  and  _753
REMARK  285  A    between atoms: _753  and  _754
REMARK  286  A    between atoms: _760  and  _762
REMARK  287  A    between atoms: _762  and  _763
REMARK  288  A    between atoms: _762  and  _765
REMARK  289  A    between atoms: _765  and  _766
REMARK  290  A    between atoms: _768  and  _770
REMARK  291  A    between atoms: _770  and  _771
REMARK  292  A    between atoms: _770  and  _773
REMARK  293  A    between atoms: _773  and  _774
REMARK  294  A    between atoms: _780  and  _782
REMARK  295  A    between atoms: _782  and  _783
REMARK  296  A    between atoms: _782  and  _785
REMARK  297  A    between atoms: _785  and  _786
REMARK  298  A    between atoms: _786  and  _787
REMARK                            x       y       z     vdW  Elec       q    Type
REMARK                         _______ _______ _______ _____ _____    ______ ____
ROOT
ATOM      1  O   HOH     1      17.349 -17.336 -21.005  0.00  0.00    +0.000 OA
ENDROOT
TORSDOF 0
REMARK  Name = ../refined-set-2016/4ca6/4ca6_pocket.pdb
REMARK  298 active torsions:
REMARK  status: ('A' for Active; 'I' for Inactive)
REMARK    1  A    between atoms: _1  and  _3
REMARK    2  A    between atoms: _3  and  _4
REMARK    3  A    between atoms: _3  and  _6
REMARK    4  A    between atoms: _6  and  _7
REMARK    5  A    between atoms: _10  and  _12
REMARK    6  A    between atoms: _12  and  _13
REMARK    7  A    between atoms: _12  and  _15
REMARK    8  A    between atoms: _15  and  _16
REMARK    9  A    between atoms: _18  and  _20
REMARK   10  A    between atoms: _20  and  _21
REMARK   11  A    between atoms: _20  and  _23
REMARK   12  A    between atoms: _23  and  _24
REMARK   13  A    between atoms: _29  and  _30
REMARK   14  A    between atoms: _32  and  _34
REMARK   15  A    between atoms: _34  and  _35
REMARK   16  A    between atoms: _34  and  _37
REMARK   17  A    between atoms: _37  and  _38
REMARK   18  A    between atoms: _48  and  _50
REMARK   19  A    between atoms: _50  and  _51
REMARK   20  A    between atoms: _50  and  _53
REMARK   21  A    between atoms: _53  and  _54
REMARK   22  A    between atoms: _57  and  _59
REMARK   23  A    between atoms: _59  and  _60
REMARK   24  A    between atoms: _59  and  _62
REMARK   25  A    between atoms: _62  and  _63
REMARK   26  A    between atoms: _73  and  _75
REMARK   27  A    between atoms: _75  and  _76
REMARK   28  A    between atoms: _75  and  _78
REMARK   29  A    between atoms: _78  and  _79
REMARK   30  A    between atoms: _79  and  _80
REMARK   31  A    between atoms: _85  and  _87
REMARK   32  A    between atoms: _87  and  _88
REMARK   33  A    between atoms: _87  and  _90
REMARK   34  A    between atoms: _90  and  _91
REMARK   35  A    between atoms: _93  and  _95
REMARK   36  A    between atoms: _95  and  _96
REMARK   37  A    between atoms: _95  and  _98
REMARK   38  A    between atoms: _98  and  _99
REMARK   39  A    between atoms: _99  and  _100
REMARK   40  A    between atoms: _103  and  _105
REMARK   41  A    between atoms: _105  and  _106
REMARK   42  A    between atoms: _105  and  _108
REMARK   43  A    between atoms: _111  and  _113
REMARK   44  A    between atoms: _113  and  _114
REMARK   45  A    between atoms: _113  and  _116
REMARK   46  A    between atoms: _118  and  _120
REMARK   47  A    between atoms: _120  and  _121
REMARK   48  A    between atoms: _120  and  _123
REMARK   49  A    between atoms: _123  and  _124
REMARK   50  A    between atoms: _129  and  _131
REMARK   51  A    between atoms: _131  and  _132
REMARK   52  A    between atoms: _135  and  _137
REMARK   53  A    between atoms: _137  and  _138
REMARK   54  A    between atoms: _137  and  _140
REMARK   55  A    between atoms: _140  and  _141
REMARK   56  A    between atoms: _143  and  _145
REMARK   57  A    between atoms: _145  and  _146
REMARK   58  A    between atoms: _149  and  _151
REMARK   59  A    between atoms: _151  and  _152
REMARK   60  A    between atoms: _151  and  _154
REMARK   61  A    between atoms: _154  and  _155
REMARK   62  A    between atoms: _165  and  _167
REMARK   63  A    between atoms: _167  and  _168
REMARK   64  A    between atoms: _167  and  _170
REMARK   65  A    between atoms: _170  and  _171
REMARK   66  A    between atoms: _174  and  _176
REMARK   67  A    between atoms: _176  and  _177
REMARK   68  A    between atoms: _176  and  _179
REMARK   69  A    between atoms: _179  and  _180
REMARK   70  A    between atoms: _185  and  _186
REMARK   71  A    between atoms: _188  and  _190
REMARK   72  A    between atoms: _190  and  _191
REMARK   73  A    between atoms: _190  and  _193
REMARK   74  A    between atoms: _193  and  _194
REMARK   75  A    between atoms: _194  and  _195
REMARK   76  A    between atoms: _195  and  _196
REMARK   77  A    between atoms: _205  and  _207
REMARK   78  A    between atoms: _207  and  _208
REMARK   79  A    between atoms: _207  and  _210
REMARK   80  A    between atoms: _210  and  _211
REMARK   81  A    between atoms: _214  and  _216
REMARK   82  A    between atoms: _216  and  _217
REMARK   83  A    between atoms: _216  and  _219
REMARK   84  A    between atoms: _219  and  _220
REMARK   85  A    between atoms: _220  and  _221
REMARK   86  A    between atoms: _221  and  _222
REMARK   87  A    between atoms: _222  and  _223
REMARK   88  A    between atoms: _227  and  _229
REMARK   89  A    between atoms: _229  and  _230
REMARK   90  A    between atoms: _229  and  _232
REMARK   91  A    between atoms: _232  and  _233
REMARK   92  A    between atoms: _233  and  _234
REMARK   93  A    between atoms: _239  and  _241
REMARK   94  A    between atoms: _241  and  _242
REMARK   95  A    between atoms: _241  and  _244
REMARK   96  A    between atoms: _244  and  _245
REMARK   97  A    between atoms: _245  and  _246
REMARK   98  A    between atoms: _246  and  _247
REMARK   99  A    between atoms: _256  and  _258
REMARK  100  A    between atoms: _258  and  _259
REMARK  101  A    between atoms: _258  and  _261
REMARK  102  A    between atoms: _261  and  _262
REMARK  103  A    between atoms: _262  and  _263
REMARK  104  A    between atoms: _265  and  _267
REMARK  105  A    between atoms: _267  and  _268
REMARK  106  A    between atoms: _267  and  _270
REMARK  107  A    between atoms: _270  and  _271
REMARK  108  A    between atoms: _274  and  _276
REMARK  109  A    between atoms: _276  and  _277
REMARK  110  A    between atoms: _276  and  _279
REMARK  111  A    between atoms: _279  and  _280
REMARK  112  A    between atoms: _280  and  _281
REMARK  113  A    between atoms: _286  and  _288
REMARK  114  A    between atoms: _288  and  _289
REMARK  115  A    between atoms: _288  and  _291
REMARK  116  A    between atoms: _291  and  _292
REMARK  117  A    between atoms: _295  and  _297
REMARK  118  A    between atoms: _297  and  _298
REMARK  119  A    between atoms: _297  and  _300
REMARK  120  A    between atoms: _300  and  _301
REMARK  121  A    between atoms: _303  and  _305
REMARK  122  A    between atoms: _305  and  _306
REMARK  123  A    between atoms: _305  and  _308
REMARK  124  A    between atoms: _308  and  _309
REMARK  125  A    between atoms: _312  and  _314
REMARK  126  A    between atoms: _314  and  _315
REMARK  127  A    between atoms: _314  and  _317
REMARK  128  A    between atoms: _320  and  _322
REMARK  129  A    between atoms: _322  and  _323
REMARK  130  A    between atoms: _322  and  _325
REMARK  131  A    between atoms: _325  and  _326
REMARK  132  A    between atoms: _331  and  _333
REMARK  133  A    between atoms: _344  and  _347
REMARK  134  A    between atoms: _347  and  _348
REMARK  135  A    between atoms: _348  and  _349
REMARK  136  A    between atoms: _354  and  _357
REMARK  137  A    between atoms: _357  and  _358
REMARK  138  A    between atoms: _358  and  _359
REMARK  139  A    between atoms: _368  and  _369
REMARK  140  A    between atoms: _377  and  _379
REMARK  141  A    between atoms: _379  and  _380
REMARK  142  A    between atoms: _379  and  _382
REMARK  143  A    between atoms: _382  and  _383
REMARK  144  A    between atoms: _386  and  _388
REMARK  145  A    between atoms: _388  and  _389
REMARK  146  A    between atoms: _388  and  _391
REMARK  147  A    between atoms: _391  and  _392
REMARK  148  A    between atoms: _397  and  _398
REMARK  149  A    between atoms: _400  and  _402
REMARK  150  A    between atoms: _402  and  _403
REMARK  151  A    between atoms: _402  and  _405
REMARK  152  A    between atoms: _405  and  _406
REMARK  153  A    between atoms: _411  and  _412
REMARK  154  A    between atoms: _414  and  _416
REMARK  155  A    between atoms: _416  and  _417
REMARK  156  A    between atoms: _416  and  _419
REMARK  157  A    between atoms: _419  and  _420
REMARK  158  A    between atoms: _425  and  _426
REMARK  159  A    between atoms: _428  and  _430
REMARK  160  A    between atoms: _430  and  _431
REMARK  161  A    between atoms: _430  and  _433
REMARK  162  A    between atoms: _433  and  _434
REMARK  163  A    between atoms: _434  and  _435
REMARK  164  A    between atoms: _435  and  _436
REMARK  165  A    between atoms: _445  and  _447
REMARK  166  A    between atoms: _447  and  _448
REMARK  167  A    between atoms: _447  and  _450
REMARK  168  A    between atoms: _450  and  _451
REMARK  169  A    between atoms: _451  and  _452
REMARK  170  A    between atoms: _452  and  _453
REMARK  171  A    between atoms: _462  and  _464
REMARK  172  A    between atoms: _464  and  _465
REMARK  173  A    between atoms: _467  and  _469
REMARK  174  A    between atoms: _469  and  _470
REMARK  175  A    between atoms: _473  and  _475
REMARK  176  A    between atoms: _475  and  _476
REMARK  177  A    between atoms: _475  and  _478
REMARK  178  A    between atoms: _478  and  _479
REMARK  179  A    between atoms: _485  and  _486
REMARK  180  A    between atoms: _491  and  _493
REMARK  181  A    between atoms: _493  and  _494
REMARK  182  A    between atoms: _496  and  _498
REMARK  183  A    between atoms: _498  and  _499
REMARK  184  A    between atoms: _498  and  _501
REMARK  185  A    between atoms: _501  and  _502
REMARK  186  A    between atoms: _508  and  _510
REMARK  187  A    between atoms: _510  and  _511
REMARK  188  A    between atoms: _510  and  _513
REMARK  189  A    between atoms: _513  and  _514
REMARK  190  A    between atoms: _519  and  _521
REMARK  191  A    between atoms: _521  and  _522
REMARK  192  A    between atoms: _521  and  _524
REMARK  193  A    between atoms: _524  and  _525
REMARK  194  A    between atoms: _525  and  _526
REMARK  195  A    between atoms: _526  and  _527
REMARK  196  A    between atoms: _527  and  ZN_792
REMARK  197  A    between atoms: _529  and  _531
REMARK  198  A    between atoms: _531  and  _532
REMARK  199  A    between atoms: _535  and  _537
REMARK  200  A    between atoms: _537  and  _538
REMARK  201  A    between atoms: _540  and  _542
REMARK  202  A    between atoms: _542  and  _543
REMARK  203  A    between atoms: _542  and  _545
REMARK  204  A    between atoms: _545  and  _546
REMARK  205  A    between atoms: _549  and  _551
REMARK  206  A    between atoms: _551  and  _552
REMARK  207  A    between atoms: _551  and  _554
REMARK  208  A    between atoms: _557  and  _559
REMARK  209  A    between atoms: _559  and  _560
REMARK  210  A    between atoms: _563  and  _565
REMARK  211  A    between atoms: _565  and  _566
REMARK  212  A    between atoms: _565  and  _568
REMARK  213  A    between atoms: _568  and  _569
REMARK  214  A    between atoms: _572  and  _574
REMARK  215  A    between atoms: _574  and  _575
REMARK  216  A    between atoms: _574  and  _577
REMARK  217  A    between atoms: _577  and  _578
REMARK  218  A    between atoms: _578  and  _579
REMARK  219  A    between atoms: _582  and  _584
REMARK  220  A    between atoms: _584  and  _585
REMARK  221  A    between atoms: _584  and  _587
REMARK  222  A    between atoms: _587  and  _588
REMARK  223  A    between atoms: _588  and  _589
REMARK  224  A    between atoms: _589  and  _590
REMARK  225  A    between atoms: _590  and  _591
REMARK  226  A    between atoms: _595  and  _597
REMARK  227  A    between atoms: _597  and  _598
REMARK  228  A    between atoms: _597  and  _600
REMARK  229  A    between atoms: _600  and  _601
REMARK  230  A    between atoms: _607  and  _609
REMARK  231  A    between atoms: _609  and  _610
REMARK  232  A    between atoms: _609  and  _612
REMARK  233  A    between atoms: _612  and  _613
REMARK  234  A    between atoms: _619  and  _621
REMARK  235  A    between atoms: _621  and  _622
REMARK  236  A    between atoms: _624  and  _626
REMARK  237  A    between atoms: _626  and  _627
REMARK  238  A    between atoms: _626  and  _629
REMARK  239  A    between atoms: _632  and  _634
REMARK  240  A    between atoms: _634  and  _635
REMARK  241  A    between atoms: _634  and  _637
REMARK  242  A    between atoms: _637  and  _638
REMARK  243  A    between atoms: _638  and  _639
REMARK  244  A    between atoms: _639  and  _640
REMARK  245  A    between atoms: _640  and  _641
REMARK  246  A    between atoms: _645  and  _647
REMARK  247  A    between atoms: _647  and  _648
REMARK  248  A    between atoms: _647  and  _650
REMARK  249  A    between atoms: _650  and  _651
REMARK  250  A    between atoms: _657  and  _659
REMARK  251  A    between atoms: _659  and  _660
REMARK  252  A    between atoms: _659  and  _662
REMARK  253  A    between atoms: _662  and  _663
REMARK  254  A    between atoms: _668  and  _670
REMARK  255  A    between atoms: _670  and  _671
REMARK  256  A    between atoms: _670  and  _673
REMARK  257  A    between atoms: _673  and  _674
REMARK  258  A    between atoms: _679  and  _681
REMARK  259  A    between atoms: _681  and  _682
REMARK  260  A    between atoms: _681  and  _684
REMARK  261  A    between atoms: _687  and  _689
REMARK  262  A    between atoms: _689  and  _690
REMARK  263  A    between atoms: _689  and  _692
REMARK  264  A    between atoms: _692  and  _693
REMARK  265  A    between atoms: _697  and  _698
REMARK  266  A    between atoms: _703  and  _705
REMARK  267  A    between atoms: _705  and  _706
REMARK  268  A    between atoms: _705  and  _708
REMARK  269  A    between atoms: _708  and  _709
REMARK  270  A    between atoms: _714  and  _715
REMARK  271  A    between atoms: _717  and  _719
REMARK  272  A    between atoms: _719  and  _720
REMARK  273  A    between atoms: _719  and  _722
REMARK  274  A    between atoms: _722  and  _723
REMARK  275  A    between atoms: _723  and  _724
REMARK  276  A    between atoms: _724  and  _725
REMARK  277  A    between atoms: _734  and  _736
REMARK  278  A    between atoms: _736  and  _737
REMARK  279  A    between atoms: _736  and  _739
REMARK  280  A    between atoms: _739  and  _740
REMARK  281  A    between atoms: _745  and  _746
REMARK  282  A    between atoms: _748  and  _750
REMARK  283  A    between atoms: _750  and  _751
REMARK  284  A    between atoms: _750  and  _753
REMARK  285  A    between atoms: _753  and  _754
REMARK  286  A    between atoms: _760  and  _762
REMARK  287  A    between atoms: _762  and  _763
REMARK  288  A    between atoms: _762  and  _765
REMARK  289  A    between atoms: _765  and  _766
REMARK  290  A    between atoms: _768  and  _770
REMARK  291  A    between atoms: _770  and  _771
REMARK  292  A    between atoms: _770  and  _773
REMARK  293  A    between atoms: _773  and  _774
REMARK  294  A    between atoms: _780  and  _782
REMARK  295  A    between atoms: _782  and  _783
REMARK  296  A    between atoms: _782  and  _785
REMARK  297  A    between atoms: _785  and  _786
REMARK  298  A    between atoms: _786  and  _787
REMARK                            x       y       z     vdW  Elec       q    Type
REMARK                         _______ _______ _______ _____ _____    ______ ____
ROOT
ATOM      1  O   HOH     1      10.651 -15.206 -19.079  0.00  0.00    +0.000 OA
ENDROOT
TORSDOF 0
REMARK  Name = ../refined-set-2016/4ca6/4ca6_pocket.pdb
REMARK  298 active torsions:
REMARK  status: ('A' for Active; 'I' for Inactive)
REMARK    1  A    between atoms: _1  and  _3
REMARK    2  A    between atoms: _3  and  _4
REMARK    3  A    between atoms: _3  and  _6
REMARK    4  A    between atoms: _6  and  _7
REMARK    5  A    between atoms: _10  and  _12
REMARK    6  A    between atoms: _12  and  _13
REMARK    7  A    between atoms: _12  and  _15
REMARK    8  A    between atoms: _15  and  _16
REMARK    9  A    between atoms: _18  and  _20
REMARK   10  A    between atoms: _20  and  _21
REMARK   11  A    between atoms: _20  and  _23
REMARK   12  A    between atoms: _23  and  _24
REMARK   13  A    between atoms: _29  and  _30
REMARK   14  A    between atoms: _32  and  _34
REMARK   15  A    between atoms: _34  and  _35
REMARK   16  A    between atoms: _34  and  _37
REMARK   17  A    between atoms: _37  and  _38
REMARK   18  A    between atoms: _48  and  _50
REMARK   19  A    between atoms: _50  and  _51
REMARK   20  A    between atoms: _50  and  _53
REMARK   21  A    between atoms: _53  and  _54
REMARK   22  A    between atoms: _57  and  _59
REMARK   23  A    between atoms: _59  and  _60
REMARK   24  A    between atoms: _59  and  _62
REMARK   25  A    between atoms: _62  and  _63
REMARK   26  A    between atoms: _73  and  _75
REMARK   27  A    between atoms: _75  and  _76
REMARK   28  A    between atoms: _75  and  _78
REMARK   29  A    between atoms: _78  and  _79
REMARK   30  A    between atoms: _79  and  _80
REMARK   31  A    between atoms: _85  and  _87
REMARK   32  A    between atoms: _87  and  _88
REMARK   33  A    between atoms: _87  and  _90
REMARK   34  A    between atoms: _90  and  _91
REMARK   35  A    between atoms: _93  and  _95
REMARK   36  A    between atoms: _95  and  _96
REMARK   37  A    between atoms: _95  and  _98
REMARK   38  A    between atoms: _98  and  _99
REMARK   39  A    between atoms: _99  and  _100
REMARK   40  A    between atoms: _103  and  _105
REMARK   41  A    between atoms: _105  and  _106
REMARK   42  A    between atoms: _105  and  _108
REMARK   43  A    between atoms: _111  and  _113
REMARK   44  A    between atoms: _113  and  _114
REMARK   45  A    between atoms: _113  and  _116
REMARK   46  A    between atoms: _118  and  _120
REMARK   47  A    between atoms: _120  and  _121
REMARK   48  A    between atoms: _120  and  _123
REMARK   49  A    between atoms: _123  and  _124
REMARK   50  A    between atoms: _129  and  _131
REMARK   51  A    between atoms: _131  and  _132
REMARK   52  A    between atoms: _135  and  _137
REMARK   53  A    between atoms: _137  and  _138
REMARK   54  A    between atoms: _137  and  _140
REMARK   55  A    between atoms: _140  and  _141
REMARK   56  A    between atoms: _143  and  _145
REMARK   57  A    between atoms: _145  and  _146
REMARK   58  A    between atoms: _149  and  _151
REMARK   59  A    between atoms: _151  and  _152
REMARK   60  A    between atoms: _151  and  _154
REMARK   61  A    between atoms: _154  and  _155
REMARK   62  A    between atoms: _165  and  _167
REMARK   63  A    between atoms: _167  and  _168
REMARK   64  A    between atoms: _167  and  _170
REMARK   65  A    between atoms: _170  and  _171
REMARK   66  A    between atoms: _174  and  _176
REMARK   67  A    between atoms: _176  and  _177
REMARK   68  A    between atoms: _176  and  _179
REMARK   69  A    between atoms: _179  and  _180
REMARK   70  A    between atoms: _185  and  _186
REMARK   71  A    between atoms: _188  and  _190
REMARK   72  A    between atoms: _190  and  _191
REMARK   73  A    between atoms: _190  and  _193
REMARK   74  A    between atoms: _193  and  _194
REMARK   75  A    between atoms: _194  and  _195
REMARK   76  A    between atoms: _195  and  _196
REMARK   77  A    between atoms: _205  and  _207
REMARK   78  A    between atoms: _207  and  _208
REMARK   79  A    between atoms: _207  and  _210
REMARK   80  A    between atoms: _210  and  _211
REMARK   81  A    between atoms: _214  and  _216
REMARK   82  A    between atoms: _216  and  _217
REMARK   83  A    between atoms: _216  and  _219
REMARK   84  A    between atoms: _219  and  _220
REMARK   85  A    between atoms: _220  and  _221
REMARK   86  A    between atoms: _221  and  _222
REMARK   87  A    between atoms: _222  and  _223
REMARK   88  A    between atoms: _227  and  _229
REMARK   89  A    between atoms: _229  and  _230
REMARK   90  A    between atoms: _229  and  _232
REMARK   91  A    between atoms: _232  and  _233
REMARK   92  A    between atoms: _233  and  _234
REMARK   93  A    between atoms: _239  and  _241
REMARK   94  A    between atoms: _241  and  _242
REMARK   95  A    between atoms: _241  and  _244
REMARK   96  A    between atoms: _244  and  _245
REMARK   97  A    between atoms: _245  and  _246
REMARK   98  A    between atoms: _246  and  _247
REMARK   99  A    between atoms: _256  and  _258
REMARK  100  A    between atoms: _258  and  _259
REMARK  101  A    between atoms: _258  and  _261
REMARK  102  A    between atoms: _261  and  _262
REMARK  103  A    between atoms: _262  and  _263
REMARK  104  A    between atoms: _265  and  _267
REMARK  105  A    between atoms: _267  and  _268
REMARK  106  A    between atoms: _267  and  _270
REMARK  107  A    between atoms: _270  and  _271
REMARK  108  A    between atoms: _274  and  _276
REMARK  109  A    between atoms: _276  and  _277
REMARK  110  A    between atoms: _276  and  _279
REMARK  111  A    between atoms: _279  and  _280
REMARK  112  A    between atoms: _280  and  _281
REMARK  113  A    between atoms: _286  and  _288
REMARK  114  A    between atoms: _288  and  _289
REMARK  115  A    between atoms: _288  and  _291
REMARK  116  A    between atoms: _291  and  _292
REMARK  117  A    between atoms: _295  and  _297
REMARK  118  A    between atoms: _297  and  _298
REMARK  119  A    between atoms: _297  and  _300
REMARK  120  A    between atoms: _300  and  _301
REMARK  121  A    between atoms: _303  and  _305
REMARK  122  A    between atoms: _305  and  _306
REMARK  123  A    between atoms: _305  and  _308
REMARK  124  A    between atoms: _308  and  _309
REMARK  125  A    between atoms: _312  and  _314
REMARK  126  A    between atoms: _314  and  _315
REMARK  127  A    between atoms: _314  and  _317
REMARK  128  A    between atoms: _320  and  _322
REMARK  129  A    between atoms: _322  and  _323
REMARK  130  A    between atoms: _322  and  _325
REMARK  131  A    between atoms: _325  and  _326
REMARK  132  A    between atoms: _331  and  _333
REMARK  133  A    between atoms: _344  and  _347
REMARK  134  A    between atoms: _347  and  _348
REMARK  135  A    between atoms: _348  and  _349
REMARK  136  A    between atoms: _354  and  _357
REMARK  137  A    between atoms: _357  and  _358
REMARK  138  A    between atoms: _358  and  _359
REMARK  139  A    between atoms: _368  and  _369
REMARK  140  A    between atoms: _377  and  _379
REMARK  141  A    between atoms: _379  and  _380
REMARK  142  A    between atoms: _379  and  _382
REMARK  143  A    between atoms: _382  and  _383
REMARK  144  A    between atoms: _386  and  _388
REMARK  145  A    between atoms: _388  and  _389
REMARK  146  A    between atoms: _388  and  _391
REMARK  147  A    between atoms: _391  and  _392
REMARK  148  A    between atoms: _397  and  _398
REMARK  149  A    between atoms: _400  and  _402
REMARK  150  A    between atoms: _402  and  _403
REMARK  151  A    between atoms: _402  and  _405
REMARK  152  A    between atoms: _405  and  _406
REMARK  153  A    between atoms: _411  and  _412
REMARK  154  A    between atoms: _414  and  _416
REMARK  155  A    between atoms: _416  and  _417
REMARK  156  A    between atoms: _416  and  _419
REMARK  157  A    between atoms: _419  and  _420
REMARK  158  A    between atoms: _425  and  _426
REMARK  159  A    between atoms: _428  and  _430
REMARK  160  A    between atoms: _430  and  _431
REMARK  161  A    between atoms: _430  and  _433
REMARK  162  A    between atoms: _433  and  _434
REMARK  163  A    between atoms: _434  and  _435
REMARK  164  A    between atoms: _435  and  _436
REMARK  165  A    between atoms: _445  and  _447
REMARK  166  A    between atoms: _447  and  _448
REMARK  167  A    between atoms: _447  and  _450
REMARK  168  A    between atoms: _450  and  _451
REMARK  169  A    between atoms: _451  and  _452
REMARK  170  A    between atoms: _452  and  _453
REMARK  171  A    between atoms: _462  and  _464
REMARK  172  A    between atoms: _464  and  _465
REMARK  173  A    between atoms: _467  and  _469
REMARK  174  A    between atoms: _469  and  _470
REMARK  175  A    between atoms: _473  and  _475
REMARK  176  A    between atoms: _475  and  _476
REMARK  177  A    between atoms: _475  and  _478
REMARK  178  A    between atoms: _478  and  _479
REMARK  179  A    between atoms: _485  and  _486
REMARK  180  A    between atoms: _491  and  _493
REMARK  181  A    between atoms: _493  and  _494
REMARK  182  A    between atoms: _496  and  _498
REMARK  183  A    between atoms: _498  and  _499
REMARK  184  A    between atoms: _498  and  _501
REMARK  185  A    between atoms: _501  and  _502
REMARK  186  A    between atoms: _508  and  _510
REMARK  187  A    between atoms: _510  and  _511
REMARK  188  A    between atoms: _510  and  _513
REMARK  189  A    between atoms: _513  and  _514
REMARK  190  A    between atoms: _519  and  _521
REMARK  191  A    between atoms: _521  and  _522
REMARK  192  A    between atoms: _521  and  _524
REMARK  193  A    between atoms: _524  and  _525
REMARK  194  A    between atoms: _525  and  _526
REMARK  195  A    between atoms: _526  and  _527
REMARK  196  A    between atoms: _527  and  ZN_792
REMARK  197  A    between atoms: _529  and  _531
REMARK  198  A    between atoms: _531  and  _532
REMARK  199  A    between atoms: _535  and  _537
REMARK  200  A    between atoms: _537  and  _538
REMARK  201  A    between atoms: _540  and  _542
REMARK  202  A    between atoms: _542  and  _543
REMARK  203  A    between atoms: _542  and  _545
REMARK  204  A    between atoms: _545  and  _546
REMARK  205  A    between atoms: _549  and  _551
REMARK  206  A    between atoms: _551  and  _552
REMARK  207  A    between atoms: _551  and  _554
REMARK  208  A    between atoms: _557  and  _559
REMARK  209  A    between atoms: _559  and  _560
REMARK  210  A    between atoms: _563  and  _565
REMARK  211  A    between atoms: _565  and  _566
REMARK  212  A    between atoms: _565  and  _568
REMARK  213  A    between atoms: _568  and  _569
REMARK  214  A    between atoms: _572  and  _574
REMARK  215  A    between atoms: _574  and  _575
REMARK  216  A    between atoms: _574  and  _577
REMARK  217  A    between atoms: _577  and  _578
REMARK  218  A    between atoms: _578  and  _579
REMARK  219  A    between atoms: _582  and  _584
REMARK  220  A    between atoms: _584  and  _585
REMARK  221  A    between atoms: _584  and  _587
REMARK  222  A    between atoms: _587  and  _588
REMARK  223  A    between atoms: _588  and  _589
REMARK  224  A    between atoms: _589  and  _590
REMARK  225  A    between atoms: _590  and  _591
REMARK  226  A    between atoms: _595  and  _597
REMARK  227  A    between atoms: _597  and  _598
REMARK  228  A    between atoms: _597  and  _600
REMARK  229  A    between atoms: _600  and  _601
REMARK  230  A    between atoms: _607  and  _609
REMARK  231  A    between atoms: _609  and  _610
REMARK  232  A    between atoms: _609  and  _612
REMARK  233  A    between atoms: _612  and  _613
REMARK  234  A    between atoms: _619  and  _621
REMARK  235  A    between atoms: _621  and  _622
REMARK  236  A    between atoms: _624  and  _626
REMARK  237  A    between atoms: _626  and  _627
REMARK  238  A    between atoms: _626  and  _629
REMARK  239  A    between atoms: _632  and  _634
REMARK  240  A    between atoms: _634  and  _635
REMARK  241  A    between atoms: _634  and  _637
REMARK  242  A    between atoms: _637  and  _638
REMARK  243  A    between atoms: _638  and  _639
REMARK  244  A    between atoms: _639  and  _640
REMARK  245  A    between atoms: _640  and  _641
REMARK  246  A    between atoms: _645  and  _647
REMARK  247  A    between atoms: _647  and  _648
REMARK  248  A    between atoms: _647  and  _650
REMARK  249  A    between atoms: _650  and  _651
REMARK  250  A    between atoms: _657  and  _659
REMARK  251  A    between atoms: _659  and  _660
REMARK  252  A    between atoms: _659  and  _662
REMARK  253  A    between atoms: _662  and  _663
REMARK  254  A    between atoms: _668  and  _670
REMARK  255  A    between atoms: _670  and  _671
REMARK  256  A    between atoms: _670  and  _673
REMARK  257  A    between atoms: _673  and  _674
REMARK  258  A    between atoms: _679  and  _681
REMARK  259  A    between atoms: _681  and  _682
REMARK  260  A    between atoms: _681  and  _684
REMARK  261  A    between atoms: _687  and  _689
REMARK  262  A    between atoms: _689  and  _690
REMARK  263  A    between atoms: _689  and  _692
REMARK  264  A    between atoms: _692  and  _693
REMARK  265  A    between atoms: _697  and  _698
REMARK  266  A    between atoms: _703  and  _705
REMARK  267  A    between atoms: _705  and  _706
REMARK  268  A    between atoms: _705  and  _708
REMARK  269  A    between atoms: _708  and  _709
REMARK  270  A    between atoms: _714  and  _715
REMARK  271  A    between atoms: _717  and  _719
REMARK  272  A    between atoms: _719  and  _720
REMARK  273  A    between atoms: _719  and  _722
REMARK  274  A    between atoms: _722  and  _723
REMARK  275  A    between atoms: _723  and  _724
REMARK  276  A    between atoms: _724  and  _725
REMARK  277  A    between atoms: _734  and  _736
REMARK  278  A    between atoms: _736  and  _737
REMARK  279  A    between atoms: _736  and  _739
REMARK  280  A    between atoms: _739  and  _740
REMARK  281  A    between atoms: _745  and  _746
REMARK  282  A    between atoms: _748  and  _750
REMARK  283  A    between atoms: _750  and  _751
REMARK  284  A    between atoms: _750  and  _753
REMARK  285  A    between atoms: _753  and  _754
REMARK  286  A    between atoms: _760  and  _762
REMARK  287  A    between atoms: _762  and  _763
REMARK  288  A    between atoms: _762  and  _765
REMARK  289  A    between atoms: _765  and  _766
REMARK  290  A    between atoms: _768  and  _770
REMARK  291  A    between atoms: _770  and  _771
REMARK  292  A    between atoms: _770  and  _773
REMARK  293  A    between atoms: _773  and  _774
REMARK  294  A    between atoms: _780  and  _782
REMARK  295  A    between atoms: _782  and  _783
REMARK  296  A    between atoms: _782  and  _785
REMARK  297  A    between atoms: _785  and  _786
REMARK  298  A    between atoms: _786  and  _787
REMARK                            x       y       z     vdW  Elec       q    Type
REMARK                         _______ _______ _______ _____ _____    ______ ____
ROOT
ATOM      1  O   HOH     1      10.554 -17.865 -18.990  0.00  0.00    +0.000 OA
ENDROOT
TORSDOF 0
REMARK  Name = ../refined-set-2016/4ca6/4ca6_pocket.pdb
REMARK  298 active torsions:
REMARK  status: ('A' for Active; 'I' for Inactive)
REMARK    1  A    between atoms: _1  and  _3
REMARK    2  A    between atoms: _3  and  _4
REMARK    3  A    between atoms: _3  and  _6
REMARK    4  A    between atoms: _6  and  _7
REMARK    5  A    between atoms: _10  and  _12
REMARK    6  A    between atoms: _12  and  _13
REMARK    7  A    between atoms: _12  and  _15
REMARK    8  A    between atoms: _15  and  _16
REMARK    9  A    between atoms: _18  and  _20
REMARK   10  A    between atoms: _20  and  _21
REMARK   11  A    between atoms: _20  and  _23
REMARK   12  A    between atoms: _23  and  _24
REMARK   13  A    between atoms: _29  and  _30
REMARK   14  A    between atoms: _32  and  _34
REMARK   15  A    between atoms: _34  and  _35
REMARK   16  A    between atoms: _34  and  _37
REMARK   17  A    between atoms: _37  and  _38
REMARK   18  A    between atoms: _48  and  _50
REMARK   19  A    between atoms: _50  and  _51
REMARK   20  A    between atoms: _50  and  _53
REMARK   21  A    between atoms: _53  and  _54
REMARK   22  A    between atoms: _57  and  _59
REMARK   23  A    between atoms: _59  and  _60
REMARK   24  A    between atoms: _59  and  _62
REMARK   25  A    between atoms: _62  and  _63
REMARK   26  A    between atoms: _73  and  _75
REMARK   27  A    between atoms: _75  and  _76
REMARK   28  A    between atoms: _75  and  _78
REMARK   29  A    between atoms: _78  and  _79
REMARK   30  A    between atoms: _79  and  _80
REMARK   31  A    between atoms: _85  and  _87
REMARK   32  A    between atoms: _87  and  _88
REMARK   33  A    between atoms: _87  and  _90
REMARK   34  A    between atoms: _90  and  _91
REMARK   35  A    between atoms: _93  and  _95
REMARK   36  A    between atoms: _95  and  _96
REMARK   37  A    between atoms: _95  and  _98
REMARK   38  A    between atoms: _98  and  _99
REMARK   39  A    between atoms: _99  and  _100
REMARK   40  A    between atoms: _103  and  _105
REMARK   41  A    between atoms: _105  and  _106
REMARK   42  A    between atoms: _105  and  _108
REMARK   43  A    between atoms: _111  and  _113
REMARK   44  A    between atoms: _113  and  _114
REMARK   45  A    between atoms: _113  and  _116
REMARK   46  A    between atoms: _118  and  _120
REMARK   47  A    between atoms: _120  and  _121
REMARK   48  A    between atoms: _120  and  _123
REMARK   49  A    between atoms: _123  and  _124
REMARK   50  A    between atoms: _129  and  _131
REMARK   51  A    between atoms: _131  and  _132
REMARK   52  A    between atoms: _135  and  _137
REMARK   53  A    between atoms: _137  and  _138
REMARK   54  A    between atoms: _137  and  _140
REMARK   55  A    between atoms: _140  and  _141
REMARK   56  A    between atoms: _143  and  _145
REMARK   57  A    between atoms: _145  and  _146
REMARK   58  A    between atoms: _149  and  _151
REMARK   59  A    between atoms: _151  and  _152
REMARK   60  A    between atoms: _151  and  _154
REMARK   61  A    between atoms: _154  and  _155
REMARK   62  A    between atoms: _165  and  _167
REMARK   63  A    between atoms: _167  and  _168
REMARK   64  A    between atoms: _167  and  _170
REMARK   65  A    between atoms: _170  and  _171
REMARK   66  A    between atoms: _174  and  _176
REMARK   67  A    between atoms: _176  and  _177
REMARK   68  A    between atoms: _176  and  _179
REMARK   69  A    between atoms: _179  and  _180
REMARK   70  A    between atoms: _185  and  _186
REMARK   71  A    between atoms: _188  and  _190
REMARK   72  A    between atoms: _190  and  _191
REMARK   73  A    between atoms: _190  and  _193
REMARK   74  A    between atoms: _193  and  _194
REMARK   75  A    between atoms: _194  and  _195
REMARK   76  A    between atoms: _195  and  _196
REMARK   77  A    between atoms: _205  and  _207
REMARK   78  A    between atoms: _207  and  _208
REMARK   79  A    between atoms: _207  and  _210
REMARK   80  A    between atoms: _210  and  _211
REMARK   81  A    between atoms: _214  and  _216
REMARK   82  A    between atoms: _216  and  _217
REMARK   83  A    between atoms: _216  and  _219
REMARK   84  A    between atoms: _219  and  _220
REMARK   85  A    between atoms: _220  and  _221
REMARK   86  A    between atoms: _221  and  _222
REMARK   87  A    between atoms: _222  and  _223
REMARK   88  A    between atoms: _227  and  _229
REMARK   89  A    between atoms: _229  and  _230
REMARK   90  A    between atoms: _229  and  _232
REMARK   91  A    between atoms: _232  and  _233
REMARK   92  A    between atoms: _233  and  _234
REMARK   93  A    between atoms: _239  and  _241
REMARK   94  A    between atoms: _241  and  _242
REMARK   95  A    between atoms: _241  and  _244
REMARK   96  A    between atoms: _244  and  _245
REMARK   97  A    between atoms: _245  and  _246
REMARK   98  A    between atoms: _246  and  _247
REMARK   99  A    between atoms: _256  and  _258
REMARK  100  A    between atoms: _258  and  _259
REMARK  101  A    between atoms: _258  and  _261
REMARK  102  A    between atoms: _261  and  _262
REMARK  103  A    between atoms: _262  and  _263
REMARK  104  A    between atoms: _265  and  _267
REMARK  105  A    between atoms: _267  and  _268
REMARK  106  A    between atoms: _267  and  _270
REMARK  107  A    between atoms: _270  and  _271
REMARK  108  A    between atoms: _274  and  _276
REMARK  109  A    between atoms: _276  and  _277
REMARK  110  A    between atoms: _276  and  _279
REMARK  111  A    between atoms: _279  and  _280
REMARK  112  A    between atoms: _280  and  _281
REMARK  113  A    between atoms: _286  and  _288
REMARK  114  A    between atoms: _288  and  _289
REMARK  115  A    between atoms: _288  and  _291
REMARK  116  A    between atoms: _291  and  _292
REMARK  117  A    between atoms: _295  and  _297
REMARK  118  A    between atoms: _297  and  _298
REMARK  119  A    between atoms: _297  and  _300
REMARK  120  A    between atoms: _300  and  _301
REMARK  121  A    between atoms: _303  and  _305
REMARK  122  A    between atoms: _305  and  _306
REMARK  123  A    between atoms: _305  and  _308
REMARK  124  A    between atoms: _308  and  _309
REMARK  125  A    between atoms: _312  and  _314
REMARK  126  A    between atoms: _314  and  _315
REMARK  127  A    between atoms: _314  and  _317
REMARK  128  A    between atoms: _320  and  _322
REMARK  129  A    between atoms: _322  and  _323
REMARK  130  A    between atoms: _322  and  _325
REMARK  131  A    between atoms: _325  and  _326
REMARK  132  A    between atoms: _331  and  _333
REMARK  133  A    between atoms: _344  and  _347
REMARK  134  A    between atoms: _347  and  _348
REMARK  135  A    between atoms: _348  and  _349
REMARK  136  A    between atoms: _354  and  _357
REMARK  137  A    between atoms: _357  and  _358
REMARK  138  A    between atoms: _358  and  _359
REMARK  139  A    between atoms: _368  and  _369
REMARK  140  A    between atoms: _377  and  _379
REMARK  141  A    between atoms: _379  and  _380
REMARK  142  A    between atoms: _379  and  _382
REMARK  143  A    between atoms: _382  and  _383
REMARK  144  A    between atoms: _386  and  _388
REMARK  145  A    between atoms: _388  and  _389
REMARK  146  A    between atoms: _388  and  _391
REMARK  147  A    between atoms: _391  and  _392
REMARK  148  A    between atoms: _397  and  _398
REMARK  149  A    between atoms: _400  and  _402
REMARK  150  A    between atoms: _402  and  _403
REMARK  151  A    between atoms: _402  and  _405
REMARK  152  A    between atoms: _405  and  _406
REMARK  153  A    between atoms: _411  and  _412
REMARK  154  A    between atoms: _414  and  _416
REMARK  155  A    between atoms: _416  and  _417
REMARK  156  A    between atoms: _416  and  _419
REMARK  157  A    between atoms: _419  and  _420
REMARK  158  A    between atoms: _425  and  _426
REMARK  159  A    between atoms: _428  and  _430
REMARK  160  A    between atoms: _430  and  _431
REMARK  161  A    between atoms: _430  and  _433
REMARK  162  A    between atoms: _433  and  _434
REMARK  163  A    between atoms: _434  and  _435
REMARK  164  A    between atoms: _435  and  _436
REMARK  165  A    between atoms: _445  and  _447
REMARK  166  A    between atoms: _447  and  _448
REMARK  167  A    between atoms: _447  and  _450
REMARK  168  A    between atoms: _450  and  _451
REMARK  169  A    between atoms: _451  and  _452
REMARK  170  A    between atoms: _452  and  _453
REMARK  171  A    between atoms: _462  and  _464
REMARK  172  A    between atoms: _464  and  _465
REMARK  173  A    between atoms: _467  and  _469
REMARK  174  A    between atoms: _469  and  _470
REMARK  175  A    between atoms: _473  and  _475
REMARK  176  A    between atoms: _475  and  _476
REMARK  177  A    between atoms: _475  and  _478
REMARK  178  A    between atoms: _478  and  _479
REMARK  179  A    between atoms: _485  and  _486
REMARK  180  A    between atoms: _491  and  _493
REMARK  181  A    between atoms: _493  and  _494
REMARK  182  A    between atoms: _496  and  _498
REMARK  183  A    between atoms: _498  and  _499
REMARK  184  A    between atoms: _498  and  _501
REMARK  185  A    between atoms: _501  and  _502
REMARK  186  A    between atoms: _508  and  _510
REMARK  187  A    between atoms: _510  and  _511
REMARK  188  A    between atoms: _510  and  _513
REMARK  189  A    between atoms: _513  and  _514
REMARK  190  A    between atoms: _519  and  _521
REMARK  191  A    between atoms: _521  and  _522
REMARK  192  A    between atoms: _521  and  _524
REMARK  193  A    between atoms: _524  and  _525
REMARK  194  A    between atoms: _525  and  _526
REMARK  195  A    between atoms: _526  and  _527
REMARK  196  A    between atoms: _527  and  ZN_792
REMARK  197  A    between atoms: _529  and  _531
REMARK  198  A    between atoms: _531  and  _532
REMARK  199  A    between atoms: _535  and  _537
REMARK  200  A    between atoms: _537  and  _538
REMARK  201  A    between atoms: _540  and  _542
REMARK  202  A    between atoms: _542  and  _543
REMARK  203  A    between atoms: _542  and  _545
REMARK  204  A    between atoms: _545  and  _546
REMARK  205  A    between atoms: _549  and  _551
REMARK  206  A    between atoms: _551  and  _552
REMARK  207  A    between atoms: _551  and  _554
REMARK  208  A    between atoms: _557  and  _559
REMARK  209  A    between atoms: _559  and  _560
REMARK  210  A    between atoms: _563  and  _565
REMARK  211  A    between atoms: _565  and  _566
REMARK  212  A    between atoms: _565  and  _568
REMARK  213  A    between atoms: _568  and  _569
REMARK  214  A    between atoms: _572  and  _574
REMARK  215  A    between atoms: _574  and  _575
REMARK  216  A    between atoms: _574  and  _577
REMARK  217  A    between atoms: _577  and  _578
REMARK  218  A    between atoms: _578  and  _579
REMARK  219  A    between atoms: _582  and  _584
REMARK  220  A    between atoms: _584  and  _585
REMARK  221  A    between atoms: _584  and  _587
REMARK  222  A    between atoms: _587  and  _588
REMARK  223  A    between atoms: _588  and  _589
REMARK  224  A    between atoms: _589  and  _590
REMARK  225  A    between atoms: _590  and  _591
REMARK  226  A    between atoms: _595  and  _597
REMARK  227  A    between atoms: _597  and  _598
REMARK  228  A    between atoms: _597  and  _600
REMARK  229  A    between atoms: _600  and  _601
REMARK  230  A    between atoms: _607  and  _609
REMARK  231  A    between atoms: _609  and  _610
REMARK  232  A    between atoms: _609  and  _612
REMARK  233  A    between atoms: _612  and  _613
REMARK  234  A    between atoms: _619  and  _621
REMARK  235  A    between atoms: _621  and  _622
REMARK  236  A    between atoms: _624  and  _626
REMARK  237  A    between atoms: _626  and  _627
REMARK  238  A    between atoms: _626  and  _629
REMARK  239  A    between atoms: _632  and  _634
REMARK  240  A    between atoms: _634  and  _635
REMARK  241  A    between atoms: _634  and  _637
REMARK  242  A    between atoms: _637  and  _638
REMARK  243  A    between atoms: _638  and  _639
REMARK  244  A    between atoms: _639  and  _640
REMARK  245  A    between atoms: _640  and  _641
REMARK  246  A    between atoms: _645  and  _647
REMARK  247  A    between atoms: _647  and  _648
REMARK  248  A    between atoms: _647  and  _650
REMARK  249  A    between atoms: _650  and  _651
REMARK  250  A    between atoms: _657  and  _659
REMARK  251  A    between atoms: _659  and  _660
REMARK  252  A    between atoms: _659  and  _662
REMARK  253  A    between atoms: _662  and  _663
REMARK  254  A    between atoms: _668  and  _670
REMARK  255  A    between atoms: _670  and  _671
REMARK  256  A    between atoms: _670  and  _673
REMARK  257  A    between atoms: _673  and  _674
REMARK  258  A    between atoms: _679  and  _681
REMARK  259  A    between atoms: _681  and  _682
REMARK  260  A    between atoms: _681  and  _684
REMARK  261  A    between atoms: _687  and  _689
REMARK  262  A    between atoms: _689  and  _690
REMARK  263  A    between atoms: _689  and  _692
REMARK  264  A    between atoms: _692  and  _693
REMARK  265  A    between atoms: _697  and  _698
REMARK  266  A    between atoms: _703  and  _705
REMARK  267  A    between atoms: _705  and  _706
REMARK  268  A    between atoms: _705  and  _708
REMARK  269  A    between atoms: _708  and  _709
REMARK  270  A    between atoms: _714  and  _715
REMARK  271  A    between atoms: _717  and  _719
REMARK  272  A    between atoms: _719  and  _720
REMARK  273  A    between atoms: _719  and  _722
REMARK  274  A    between atoms: _722  and  _723
REMARK  275  A    between atoms: _723  and  _724
REMARK  276  A    between atoms: _724  and  _725
REMARK  277  A    between atoms: _734  and  _736
REMARK  278  A    between atoms: _736  and  _737
REMARK  279  A    between atoms: _736  and  _739
REMARK  280  A    between atoms: _739  and  _740
REMARK  281  A    between atoms: _745  and  _746
REMARK  282  A    between atoms: _748  and  _750
REMARK  283  A    between atoms: _750  and  _751
REMARK  284  A    between atoms: _750  and  _753
REMARK  285  A    between atoms: _753  and  _754
REMARK  286  A    between atoms: _760  and  _762
REMARK  287  A    between atoms: _762  and  _763
REMARK  288  A    between atoms: _762  and  _765
REMARK  289  A    between atoms: _765  and  _766
REMARK  290  A    between atoms: _768  and  _770
REMARK  291  A    between atoms: _770  and  _771
REMARK  292  A    between atoms: _770  and  _773
REMARK  293  A    between atoms: _773  and  _774
REMARK  294  A    between atoms: _780  and  _782
REMARK  295  A    between atoms: _782  and  _783
REMARK  296  A    between atoms: _782  and  _785
REMARK  297  A    between atoms: _785  and  _786
REMARK  298  A    between atoms: _786  and  _787
REMARK                            x       y       z     vdW  Elec       q    Type
REMARK                         _______ _______ _______ _____ _____    ______ ____
ROOT
ATOM      1  O   HOH     1       4.971 -10.518 -23.176  0.00  0.00    +0.000 OA
ENDROOT
TORSDOF 0
REMARK  Name = ../refined-set-2016/4ca6/4ca6_pocket.pdb
REMARK  298 active torsions:
REMARK  status: ('A' for Active; 'I' for Inactive)
REMARK    1  A    between atoms: _1  and  _3
REMARK    2  A    between atoms: _3  and  _4
REMARK    3  A    between atoms: _3  and  _6
REMARK    4  A    between atoms: _6  and  _7
REMARK    5  A    between atoms: _10  and  _12
REMARK    6  A    between atoms: _12  and  _13
REMARK    7  A    between atoms: _12  and  _15
REMARK    8  A    between atoms: _15  and  _16
REMARK    9  A    between atoms: _18  and  _20
REMARK   10  A    between atoms: _20  and  _21
REMARK   11  A    between atoms: _20  and  _23
REMARK   12  A    between atoms: _23  and  _24
REMARK   13  A    between atoms: _29  and  _30
REMARK   14  A    between atoms: _32  and  _34
REMARK   15  A    between atoms: _34  and  _35
REMARK   16  A    between atoms: _34  and  _37
REMARK   17  A    between atoms: _37  and  _38
REMARK   18  A    between atoms: _48  and  _50
REMARK   19  A    between atoms: _50  and  _51
REMARK   20  A    between atoms: _50  and  _53
REMARK   21  A    between atoms: _53  and  _54
REMARK   22  A    between atoms: _57  and  _59
REMARK   23  A    between atoms: _59  and  _60
REMARK   24  A    between atoms: _59  and  _62
REMARK   25  A    between atoms: _62  and  _63
REMARK   26  A    between atoms: _73  and  _75
REMARK   27  A    between atoms: _75  and  _76
REMARK   28  A    between atoms: _75  and  _78
REMARK   29  A    between atoms: _78  and  _79
REMARK   30  A    between atoms: _79  and  _80
REMARK   31  A    between atoms: _85  and  _87
REMARK   32  A    between atoms: _87  and  _88
REMARK   33  A    between atoms: _87  and  _90
REMARK   34  A    between atoms: _90  and  _91
REMARK   35  A    between atoms: _93  and  _95
REMARK   36  A    between atoms: _95  and  _96
REMARK   37  A    between atoms: _95  and  _98
REMARK   38  A    between atoms: _98  and  _99
REMARK   39  A    between atoms: _99  and  _100
REMARK   40  A    between atoms: _103  and  _105
REMARK   41  A    between atoms: _105  and  _106
REMARK   42  A    between atoms: _105  and  _108
REMARK   43  A    between atoms: _111  and  _113
REMARK   44  A    between atoms: _113  and  _114
REMARK   45  A    between atoms: _113  and  _116
REMARK   46  A    between atoms: _118  and  _120
REMARK   47  A    between atoms: _120  and  _121
REMARK   48  A    between atoms: _120  and  _123
REMARK   49  A    between atoms: _123  and  _124
REMARK   50  A    between atoms: _129  and  _131
REMARK   51  A    between atoms: _131  and  _132
REMARK   52  A    between atoms: _135  and  _137
REMARK   53  A    between atoms: _137  and  _138
REMARK   54  A    between atoms: _137  and  _140
REMARK   55  A    between atoms: _140  and  _141
REMARK   56  A    between atoms: _143  and  _145
REMARK   57  A    between atoms: _145  and  _146
REMARK   58  A    between atoms: _149  and  _151
REMARK   59  A    between atoms: _151  and  _152
REMARK   60  A    between atoms: _151  and  _154
REMARK   61  A    between atoms: _154  and  _155
REMARK   62  A    between atoms: _165  and  _167
REMARK   63  A    between atoms: _167  and  _168
REMARK   64  A    between atoms: _167  and  _170
REMARK   65  A    between atoms: _170  and  _171
REMARK   66  A    between atoms: _174  and  _176
REMARK   67  A    between atoms: _176  and  _177
REMARK   68  A    between atoms: _176  and  _179
REMARK   69  A    between atoms: _179  and  _180
REMARK   70  A    between atoms: _185  and  _186
REMARK   71  A    between atoms: _188  and  _190
REMARK   72  A    between atoms: _190  and  _191
REMARK   73  A    between atoms: _190  and  _193
REMARK   74  A    between atoms: _193  and  _194
REMARK   75  A    between atoms: _194  and  _195
REMARK   76  A    between atoms: _195  and  _196
REMARK   77  A    between atoms: _205  and  _207
REMARK   78  A    between atoms: _207  and  _208
REMARK   79  A    between atoms: _207  and  _210
REMARK   80  A    between atoms: _210  and  _211
REMARK   81  A    between atoms: _214  and  _216
REMARK   82  A    between atoms: _216  and  _217
REMARK   83  A    between atoms: _216  and  _219
REMARK   84  A    between atoms: _219  and  _220
REMARK   85  A    between atoms: _220  and  _221
REMARK   86  A    between atoms: _221  and  _222
REMARK   87  A    between atoms: _222  and  _223
REMARK   88  A    between atoms: _227  and  _229
REMARK   89  A    between atoms: _229  and  _230
REMARK   90  A    between atoms: _229  and  _232
REMARK   91  A    between atoms: _232  and  _233
REMARK   92  A    between atoms: _233  and  _234
REMARK   93  A    between atoms: _239  and  _241
REMARK   94  A    between atoms: _241  and  _242
REMARK   95  A    between atoms: _241  and  _244
REMARK   96  A    between atoms: _244  and  _245
REMARK   97  A    between atoms: _245  and  _246
REMARK   98  A    between atoms: _246  and  _247
REMARK   99  A    between atoms: _256  and  _258
REMARK  100  A    between atoms: _258  and  _259
REMARK  101  A    between atoms: _258  and  _261
REMARK  102  A    between atoms: _261  and  _262
REMARK  103  A    between atoms: _262  and  _263
REMARK  104  A    between atoms: _265  and  _267
REMARK  105  A    between atoms: _267  and  _268
REMARK  106  A    between atoms: _267  and  _270
REMARK  107  A    between atoms: _270  and  _271
REMARK  108  A    between atoms: _274  and  _276
REMARK  109  A    between atoms: _276  and  _277
REMARK  110  A    between atoms: _276  and  _279
REMARK  111  A    between atoms: _279  and  _280
REMARK  112  A    between atoms: _280  and  _281
REMARK  113  A    between atoms: _286  and  _288
REMARK  114  A    between atoms: _288  and  _289
REMARK  115  A    between atoms: _288  and  _291
REMARK  116  A    between atoms: _291  and  _292
REMARK  117  A    between atoms: _295  and  _297
REMARK  118  A    between atoms: _297  and  _298
REMARK  119  A    between atoms: _297  and  _300
REMARK  120  A    between atoms: _300  and  _301
REMARK  121  A    between atoms: _303  and  _305
REMARK  122  A    between atoms: _305  and  _306
REMARK  123  A    between atoms: _305  and  _308
REMARK  124  A    between atoms: _308  and  _309
REMARK  125  A    between atoms: _312  and  _314
REMARK  126  A    between atoms: _314  and  _315
REMARK  127  A    between atoms: _314  and  _317
REMARK  128  A    between atoms: _320  and  _322
REMARK  129  A    between atoms: _322  and  _323
REMARK  130  A    between atoms: _322  and  _325
REMARK  131  A    between atoms: _325  and  _326
REMARK  132  A    between atoms: _331  and  _333
REMARK  133  A    between atoms: _344  and  _347
REMARK  134  A    between atoms: _347  and  _348
REMARK  135  A    between atoms: _348  and  _349
REMARK  136  A    between atoms: _354  and  _357
REMARK  137  A    between atoms: _357  and  _358
REMARK  138  A    between atoms: _358  and  _359
REMARK  139  A    between atoms: _368  and  _369
REMARK  140  A    between atoms: _377  and  _379
REMARK  141  A    between atoms: _379  and  _380
REMARK  142  A    between atoms: _379  and  _382
REMARK  143  A    between atoms: _382  and  _383
REMARK  144  A    between atoms: _386  and  _388
REMARK  145  A    between atoms: _388  and  _389
REMARK  146  A    between atoms: _388  and  _391
REMARK  147  A    between atoms: _391  and  _392
REMARK  148  A    between atoms: _397  and  _398
REMARK  149  A    between atoms: _400  and  _402
REMARK  150  A    between atoms: _402  and  _403
REMARK  151  A    between atoms: _402  and  _405
REMARK  152  A    between atoms: _405  and  _406
REMARK  153  A    between atoms: _411  and  _412
REMARK  154  A    between atoms: _414  and  _416
REMARK  155  A    between atoms: _416  and  _417
REMARK  156  A    between atoms: _416  and  _419
REMARK  157  A    between atoms: _419  and  _420
REMARK  158  A    between atoms: _425  and  _426
REMARK  159  A    between atoms: _428  and  _430
REMARK  160  A    between atoms: _430  and  _431
REMARK  161  A    between atoms: _430  and  _433
REMARK  162  A    between atoms: _433  and  _434
REMARK  163  A    between atoms: _434  and  _435
REMARK  164  A    between atoms: _435  and  _436
REMARK  165  A    between atoms: _445  and  _447
REMARK  166  A    between atoms: _447  and  _448
REMARK  167  A    between atoms: _447  and  _450
REMARK  168  A    between atoms: _450  and  _451
REMARK  169  A    between atoms: _451  and  _452
REMARK  170  A    between atoms: _452  and  _453
REMARK  171  A    between atoms: _462  and  _464
REMARK  172  A    between atoms: _464  and  _465
REMARK  173  A    between atoms: _467  and  _469
REMARK  174  A    between atoms: _469  and  _470
REMARK  175  A    between atoms: _473  and  _475
REMARK  176  A    between atoms: _475  and  _476
REMARK  177  A    between atoms: _475  and  _478
REMARK  178  A    between atoms: _478  and  _479
REMARK  179  A    between atoms: _485  and  _486
REMARK  180  A    between atoms: _491  and  _493
REMARK  181  A    between atoms: _493  and  _494
REMARK  182  A    between atoms: _496  and  _498
REMARK  183  A    between atoms: _498  and  _499
REMARK  184  A    between atoms: _498  and  _501
REMARK  185  A    between atoms: _501  and  _502
REMARK  186  A    between atoms: _508  and  _510
REMARK  187  A    between atoms: _510  and  _511
REMARK  188  A    between atoms: _510  and  _513
REMARK  189  A    between atoms: _513  and  _514
REMARK  190  A    between atoms: _519  and  _521
REMARK  191  A    between atoms: _521  and  _522
REMARK  192  A    between atoms: _521  and  _524
REMARK  193  A    between atoms: _524  and  _525
REMARK  194  A    between atoms: _525  and  _526
REMARK  195  A    between atoms: _526  and  _527
REMARK  196  A    between atoms: _527  and  ZN_792
REMARK  197  A    between atoms: _529  and  _531
REMARK  198  A    between atoms: _531  and  _532
REMARK  199  A    between atoms: _535  and  _537
REMARK  200  A    between atoms: _537  and  _538
REMARK  201  A    between atoms: _540  and  _542
REMARK  202  A    between atoms: _542  and  _543
REMARK  203  A    between atoms: _542  and  _545
REMARK  204  A    between atoms: _545  and  _546
REMARK  205  A    between atoms: _549  and  _551
REMARK  206  A    between atoms: _551  and  _552
REMARK  207  A    between atoms: _551  and  _554
REMARK  208  A    between atoms: _557  and  _559
REMARK  209  A    between atoms: _559  and  _560
REMARK  210  A    between atoms: _563  and  _565
REMARK  211  A    between atoms: _565  and  _566
REMARK  212  A    between atoms: _565  and  _568
REMARK  213  A    between atoms: _568  and  _569
REMARK  214  A    between atoms: _572  and  _574
REMARK  215  A    between atoms: _574  and  _575
REMARK  216  A    between atoms: _574  and  _577
REMARK  217  A    between atoms: _577  and  _578
REMARK  218  A    between atoms: _578  and  _579
REMARK  219  A    between atoms: _582  and  _584
REMARK  220  A    between atoms: _584  and  _585
REMARK  221  A    between atoms: _584  and  _587
REMARK  222  A    between atoms: _587  and  _588
REMARK  223  A    between atoms: _588  and  _589
REMARK  224  A    between atoms: _589  and  _590
REMARK  225  A    between atoms: _590  and  _591
REMARK  226  A    between atoms: _595  and  _597
REMARK  227  A    between atoms: _597  and  _598
REMARK  228  A    between atoms: _597  and  _600
REMARK  229  A    between atoms: _600  and  _601
REMARK  230  A    between atoms: _607  and  _609
REMARK  231  A    between atoms: _609  and  _610
REMARK  232  A    between atoms: _609  and  _612
REMARK  233  A    between atoms: _612  and  _613
REMARK  234  A    between atoms: _619  and  _621
REMARK  235  A    between atoms: _621  and  _622
REMARK  236  A    between atoms: _624  and  _626
REMARK  237  A    between atoms: _626  and  _627
REMARK  238  A    between atoms: _626  and  _629
REMARK  239  A    between atoms: _632  and  _634
REMARK  240  A    between atoms: _634  and  _635
REMARK  241  A    between atoms: _634  and  _637
REMARK  242  A    between atoms: _637  and  _638
REMARK  243  A    between atoms: _638  and  _639
REMARK  244  A    between atoms: _639  and  _640
REMARK  245  A    between atoms: _640  and  _641
REMARK  246  A    between atoms: _645  and  _647
REMARK  247  A    between atoms: _647  and  _648
REMARK  248  A    between atoms: _647  and  _650
REMARK  249  A    between atoms: _650  and  _651
REMARK  250  A    between atoms: _657  and  _659
REMARK  251  A    between atoms: _659  and  _660
REMARK  252  A    between atoms: _659  and  _662
REMARK  253  A    between atoms: _662  and  _663
REMARK  254  A    between atoms: _668  and  _670
REMARK  255  A    between atoms: _670  and  _671
REMARK  256  A    between atoms: _670  and  _673
REMARK  257  A    between atoms: _673  and  _674
REMARK  258  A    between atoms: _679  and  _681
REMARK  259  A    between atoms: _681  and  _682
REMARK  260  A    between atoms: _681  and  _684
REMARK  261  A    between atoms: _687  and  _689
REMARK  262  A    between atoms: _689  and  _690
REMARK  263  A    between atoms: _689  and  _692
REMARK  264  A    between atoms: _692  and  _693
REMARK  265  A    between atoms: _697  and  _698
REMARK  266  A    between atoms: _703  and  _705
REMARK  267  A    between atoms: _705  and  _706
REMARK  268  A    between atoms: _705  and  _708
REMARK  269  A    between atoms: _708  and  _709
REMARK  270  A    between atoms: _714  and  _715
REMARK  271  A    between atoms: _717  and  _719
REMARK  272  A    between atoms: _719  and  _720
REMARK  273  A    between atoms: _719  and  _722
REMARK  274  A    between atoms: _722  and  _723
REMARK  275  A    between atoms: _723  and  _724
REMARK  276  A    between atoms: _724  and  _725
REMARK  277  A    between atoms: _734  and  _736
REMARK  278  A    between atoms: _736  and  _737
REMARK  279  A    between atoms: _736  and  _739
REMARK  280  A    between atoms: _739  and  _740
REMARK  281  A    between atoms: _745  and  _746
REMARK  282  A    between atoms: _748  and  _750
REMARK  283  A    between atoms: _750  and  _751
REMARK  284  A    between atoms: _750  and  _753
REMARK  285  A    between atoms: _753  and  _754
REMARK  286  A    between atoms: _760  and  _762
REMARK  287  A    between atoms: _762  and  _763
REMARK  288  A    between atoms: _762  and  _765
REMARK  289  A    between atoms: _765  and  _766
REMARK  290  A    between atoms: _768  and  _770
REMARK  291  A    between atoms: _770  and  _771
REMARK  292  A    between atoms: _770  and  _773
REMARK  293  A    between atoms: _773  and  _774
REMARK  294  A    between atoms: _780  and  _782
REMARK  295  A    between atoms: _782  and  _783
REMARK  296  A    between atoms: _782  and  _785
REMARK  297  A    between atoms: _785  and  _786
REMARK  298  A    between atoms: _786  and  _787
REMARK                            x       y       z     vdW  Elec       q    Type
REMARK                         _______ _______ _______ _____ _____    ______ ____
ROOT
ATOM      1  O   HOH     1      -3.817 -14.600 -18.347  0.00  0.00    +0.000 OA
ENDROOT
TORSDOF 0
REMARK  Name = ../refined-set-2016/4ca6/4ca6_pocket.pdb
REMARK  298 active torsions:
REMARK  status: ('A' for Active; 'I' for Inactive)
REMARK    1  A    between atoms: _1  and  _3
REMARK    2  A    between atoms: _3  and  _4
REMARK    3  A    between atoms: _3  and  _6
REMARK    4  A    between atoms: _6  and  _7
REMARK    5  A    between atoms: _10  and  _12
REMARK    6  A    between atoms: _12  and  _13
REMARK    7  A    between atoms: _12  and  _15
REMARK    8  A    between atoms: _15  and  _16
REMARK    9  A    between atoms: _18  and  _20
REMARK   10  A    between atoms: _20  and  _21
REMARK   11  A    between atoms: _20  and  _23
REMARK   12  A    between atoms: _23  and  _24
REMARK   13  A    between atoms: _29  and  _30
REMARK   14  A    between atoms: _32  and  _34
REMARK   15  A    between atoms: _34  and  _35
REMARK   16  A    between atoms: _34  and  _37
REMARK   17  A    between atoms: _37  and  _38
REMARK   18  A    between atoms: _48  and  _50
REMARK   19  A    between atoms: _50  and  _51
REMARK   20  A    between atoms: _50  and  _53
REMARK   21  A    between atoms: _53  and  _54
REMARK   22  A    between atoms: _57  and  _59
REMARK   23  A    between atoms: _59  and  _60
REMARK   24  A    between atoms: _59  and  _62
REMARK   25  A    between atoms: _62  and  _63
REMARK   26  A    between atoms: _73  and  _75
REMARK   27  A    between atoms: _75  and  _76
REMARK   28  A    between atoms: _75  and  _78
REMARK   29  A    between atoms: _78  and  _79
REMARK   30  A    between atoms: _79  and  _80
REMARK   31  A    between atoms: _85  and  _87
REMARK   32  A    between atoms: _87  and  _88
REMARK   33  A    between atoms: _87  and  _90
REMARK   34  A    between atoms: _90  and  _91
REMARK   35  A    between atoms: _93  and  _95
REMARK   36  A    between atoms: _95  and  _96
REMARK   37  A    between atoms: _95  and  _98
REMARK   38  A    between atoms: _98  and  _99
REMARK   39  A    between atoms: _99  and  _100
REMARK   40  A    between atoms: _103  and  _105
REMARK   41  A    between atoms: _105  and  _106
REMARK   42  A    between atoms: _105  and  _108
REMARK   43  A    between atoms: _111  and  _113
REMARK   44  A    between atoms: _113  and  _114
REMARK   45  A    between atoms: _113  and  _116
REMARK   46  A    between atoms: _118  and  _120
REMARK   47  A    between atoms: _120  and  _121
REMARK   48  A    between atoms: _120  and  _123
REMARK   49  A    between atoms: _123  and  _124
REMARK   50  A    between atoms: _129  and  _131
REMARK   51  A    between atoms: _131  and  _132
REMARK   52  A    between atoms: _135  and  _137
REMARK   53  A    between atoms: _137  and  _138
REMARK   54  A    between atoms: _137  and  _140
REMARK   55  A    between atoms: _140  and  _141
REMARK   56  A    between atoms: _143  and  _145
REMARK   57  A    between atoms: _145  and  _146
REMARK   58  A    between atoms: _149  and  _151
REMARK   59  A    between atoms: _151  and  _152
REMARK   60  A    between atoms: _151  and  _154
REMARK   61  A    between atoms: _154  and  _155
REMARK   62  A    between atoms: _165  and  _167
REMARK   63  A    between atoms: _167  and  _168
REMARK   64  A    between atoms: _167  and  _170
REMARK   65  A    between atoms: _170  and  _171
REMARK   66  A    between atoms: _174  and  _176
REMARK   67  A    between atoms: _176  and  _177
REMARK   68  A    between atoms: _176  and  _179
REMARK   69  A    between atoms: _179  and  _180
REMARK   70  A    between atoms: _185  and  _186
REMARK   71  A    between atoms: _188  and  _190
REMARK   72  A    between atoms: _190  and  _191
REMARK   73  A    between atoms: _190  and  _193
REMARK   74  A    between atoms: _193  and  _194
REMARK   75  A    between atoms: _194  and  _195
REMARK   76  A    between atoms: _195  and  _196
REMARK   77  A    between atoms: _205  and  _207
REMARK   78  A    between atoms: _207  and  _208
REMARK   79  A    between atoms: _207  and  _210
REMARK   80  A    between atoms: _210  and  _211
REMARK   81  A    between atoms: _214  and  _216
REMARK   82  A    between atoms: _216  and  _217
REMARK   83  A    between atoms: _216  and  _219
REMARK   84  A    between atoms: _219  and  _220
REMARK   85  A    between atoms: _220  and  _221
REMARK   86  A    between atoms: _221  and  _222
REMARK   87  A    between atoms: _222  and  _223
REMARK   88  A    between atoms: _227  and  _229
REMARK   89  A    between atoms: _229  and  _230
REMARK   90  A    between atoms: _229  and  _232
REMARK   91  A    between atoms: _232  and  _233
REMARK   92  A    between atoms: _233  and  _234
REMARK   93  A    between atoms: _239  and  _241
REMARK   94  A    between atoms: _241  and  _242
REMARK   95  A    between atoms: _241  and  _244
REMARK   96  A    between atoms: _244  and  _245
REMARK   97  A    between atoms: _245  and  _246
REMARK   98  A    between atoms: _246  and  _247
REMARK   99  A    between atoms: _256  and  _258
REMARK  100  A    between atoms: _258  and  _259
REMARK  101  A    between atoms: _258  and  _261
REMARK  102  A    between atoms: _261  and  _262
REMARK  103  A    between atoms: _262  and  _263
REMARK  104  A    between atoms: _265  and  _267
REMARK  105  A    between atoms: _267  and  _268
REMARK  106  A    between atoms: _267  and  _270
REMARK  107  A    between atoms: _270  and  _271
REMARK  108  A    between atoms: _274  and  _276
REMARK  109  A    between atoms: _276  and  _277
REMARK  110  A    between atoms: _276  and  _279
REMARK  111  A    between atoms: _279  and  _280
REMARK  112  A    between atoms: _280  and  _281
REMARK  113  A    between atoms: _286  and  _288
REMARK  114  A    between atoms: _288  and  _289
REMARK  115  A    between atoms: _288  and  _291
REMARK  116  A    between atoms: _291  and  _292
REMARK  117  A    between atoms: _295  and  _297
REMARK  118  A    between atoms: _297  and  _298
REMARK  119  A    between atoms: _297  and  _300
REMARK  120  A    between atoms: _300  and  _301
REMARK  121  A    between atoms: _303  and  _305
REMARK  122  A    between atoms: _305  and  _306
REMARK  123  A    between atoms: _305  and  _308
REMARK  124  A    between atoms: _308  and  _309
REMARK  125  A    between atoms: _312  and  _314
REMARK  126  A    between atoms: _314  and  _315
REMARK  127  A    between atoms: _314  and  _317
REMARK  128  A    between atoms: _320  and  _322
REMARK  129  A    between atoms: _322  and  _323
REMARK  130  A    between atoms: _322  and  _325
REMARK  131  A    between atoms: _325  and  _326
REMARK  132  A    between atoms: _331  and  _333
REMARK  133  A    between atoms: _344  and  _347
REMARK  134  A    between atoms: _347  and  _348
REMARK  135  A    between atoms: _348  and  _349
REMARK  136  A    between atoms: _354  and  _357
REMARK  137  A    between atoms: _357  and  _358
REMARK  138  A    between atoms: _358  and  _359
REMARK  139  A    between atoms: _368  and  _369
REMARK  140  A    between atoms: _377  and  _379
REMARK  141  A    between atoms: _379  and  _380
REMARK  142  A    between atoms: _379  and  _382
REMARK  143  A    between atoms: _382  and  _383
REMARK  144  A    between atoms: _386  and  _388
REMARK  145  A    between atoms: _388  and  _389
REMARK  146  A    between atoms: _388  and  _391
REMARK  147  A    between atoms: _391  and  _392
REMARK  148  A    between atoms: _397  and  _398
REMARK  149  A    between atoms: _400  and  _402
REMARK  150  A    between atoms: _402  and  _403
REMARK  151  A    between atoms: _402  and  _405
REMARK  152  A    between atoms: _405  and  _406
REMARK  153  A    between atoms: _411  and  _412
REMARK  154  A    between atoms: _414  and  _416
REMARK  155  A    between atoms: _416  and  _417
REMARK  156  A    between atoms: _416  and  _419
REMARK  157  A    between atoms: _419  and  _420
REMARK  158  A    between atoms: _425  and  _426
REMARK  159  A    between atoms: _428  and  _430
REMARK  160  A    between atoms: _430  and  _431
REMARK  161  A    between atoms: _430  and  _433
REMARK  162  A    between atoms: _433  and  _434
REMARK  163  A    between atoms: _434  and  _435
REMARK  164  A    between atoms: _435  and  _436
REMARK  165  A    between atoms: _445  and  _447
REMARK  166  A    between atoms: _447  and  _448
REMARK  167  A    between atoms: _447  and  _450
REMARK  168  A    between atoms: _450  and  _451
REMARK  169  A    between atoms: _451  and  _452
REMARK  170  A    between atoms: _452  and  _453
REMARK  171  A    between atoms: _462  and  _464
REMARK  172  A    between atoms: _464  and  _465
REMARK  173  A    between atoms: _467  and  _469
REMARK  174  A    between atoms: _469  and  _470
REMARK  175  A    between atoms: _473  and  _475
REMARK  176  A    between atoms: _475  and  _476
REMARK  177  A    between atoms: _475  and  _478
REMARK  178  A    between atoms: _478  and  _479
REMARK  179  A    between atoms: _485  and  _486
REMARK  180  A    between atoms: _491  and  _493
REMARK  181  A    between atoms: _493  and  _494
REMARK  182  A    between atoms: _496  and  _498
REMARK  183  A    between atoms: _498  and  _499
REMARK  184  A    between atoms: _498  and  _501
REMARK  185  A    between atoms: _501  and  _502
REMARK  186  A    between atoms: _508  and  _510
REMARK  187  A    between atoms: _510  and  _511
REMARK  188  A    between atoms: _510  and  _513
REMARK  189  A    between atoms: _513  and  _514
REMARK  190  A    between atoms: _519  and  _521
REMARK  191  A    between atoms: _521  and  _522
REMARK  192  A    between atoms: _521  and  _524
REMARK  193  A    between atoms: _524  and  _525
REMARK  194  A    between atoms: _525  and  _526
REMARK  195  A    between atoms: _526  and  _527
REMARK  196  A    between atoms: _527  and  ZN_792
REMARK  197  A    between atoms: _529  and  _531
REMARK  198  A    between atoms: _531  and  _532
REMARK  199  A    between atoms: _535  and  _537
REMARK  200  A    between atoms: _537  and  _538
REMARK  201  A    between atoms: _540  and  _542
REMARK  202  A    between atoms: _542  and  _543
REMARK  203  A    between atoms: _542  and  _545
REMARK  204  A    between atoms: _545  and  _546
REMARK  205  A    between atoms: _549  and  _551
REMARK  206  A    between atoms: _551  and  _552
REMARK  207  A    between atoms: _551  and  _554
REMARK  208  A    between atoms: _557  and  _559
REMARK  209  A    between atoms: _559  and  _560
REMARK  210  A    between atoms: _563  and  _565
REMARK  211  A    between atoms: _565  and  _566
REMARK  212  A    between atoms: _565  and  _568
REMARK  213  A    between atoms: _568  and  _569
REMARK  214  A    between atoms: _572  and  _574
REMARK  215  A    between atoms: _574  and  _575
REMARK  216  A    between atoms: _574  and  _577
REMARK  217  A    between atoms: _577  and  _578
REMARK  218  A    between atoms: _578  and  _579
REMARK  219  A    between atoms: _582  and  _584
REMARK  220  A    between atoms: _584  and  _585
REMARK  221  A    between atoms: _584  and  _587
REMARK  222  A    between atoms: _587  and  _588
REMARK  223  A    between atoms: _588  and  _589
REMARK  224  A    between atoms: _589  and  _590
REMARK  225  A    between atoms: _590  and  _591
REMARK  226  A    between atoms: _595  and  _597
REMARK  227  A    between atoms: _597  and  _598
REMARK  228  A    between atoms: _597  and  _600
REMARK  229  A    between atoms: _600  and  _601
REMARK  230  A    between atoms: _607  and  _609
REMARK  231  A    between atoms: _609  and  _610
REMARK  232  A    between atoms: _609  and  _612
REMARK  233  A    between atoms: _612  and  _613
REMARK  234  A    between atoms: _619  and  _621
REMARK  235  A    between atoms: _621  and  _622
REMARK  236  A    between atoms: _624  and  _626
REMARK  237  A    between atoms: _626  and  _627
REMARK  238  A    between atoms: _626  and  _629
REMARK  239  A    between atoms: _632  and  _634
REMARK  240  A    between atoms: _634  and  _635
REMARK  241  A    between atoms: _634  and  _637
REMARK  242  A    between atoms: _637  and  _638
REMARK  243  A    between atoms: _638  and  _639
REMARK  244  A    between atoms: _639  and  _640
REMARK  245  A    between atoms: _640  and  _641
REMARK  246  A    between atoms: _645  and  _647
REMARK  247  A    between atoms: _647  and  _648
REMARK  248  A    between atoms: _647  and  _650
REMARK  249  A    between atoms: _650  and  _651
REMARK  250  A    between atoms: _657  and  _659
REMARK  251  A    between atoms: _659  and  _660
REMARK  252  A    between atoms: _659  and  _662
REMARK  253  A    between atoms: _662  and  _663
REMARK  254  A    between atoms: _668  and  _670
REMARK  255  A    between atoms: _670  and  _671
REMARK  256  A    between atoms: _670  and  _673
REMARK  257  A    between atoms: _673  and  _674
REMARK  258  A    between atoms: _679  and  _681
REMARK  259  A    between atoms: _681  and  _682
REMARK  260  A    between atoms: _681  and  _684
REMARK  261  A    between atoms: _687  and  _689
REMARK  262  A    between atoms: _689  and  _690
REMARK  263  A    between atoms: _689  and  _692
REMARK  264  A    between atoms: _692  and  _693
REMARK  265  A    between atoms: _697  and  _698
REMARK  266  A    between atoms: _703  and  _705
REMARK  267  A    between atoms: _705  and  _706
REMARK  268  A    between atoms: _705  and  _708
REMARK  269  A    between atoms: _708  and  _709
REMARK  270  A    between atoms: _714  and  _715
REMARK  271  A    between atoms: _717  and  _719
REMARK  272  A    between atoms: _719  and  _720
REMARK  273  A    between atoms: _719  and  _722
REMARK  274  A    between atoms: _722  and  _723
REMARK  275  A    between atoms: _723  and  _724
REMARK  276  A    between atoms: _724  and  _725
REMARK  277  A    between atoms: _734  and  _736
REMARK  278  A    between atoms: _736  and  _737
REMARK  279  A    between atoms: _736  and  _739
REMARK  280  A    between atoms: _739  and  _740
REMARK  281  A    between atoms: _745  and  _746
REMARK  282  A    between atoms: _748  and  _750
REMARK  283  A    between atoms: _750  and  _751
REMARK  284  A    between atoms: _750  and  _753
REMARK  285  A    between atoms: _753  and  _754
REMARK  286  A    between atoms: _760  and  _762
REMARK  287  A    between atoms: _762  and  _763
REMARK  288  A    between atoms: _762  and  _765
REMARK  289  A    between atoms: _765  and  _766
REMARK  290  A    between atoms: _768  and  _770
REMARK  291  A    between atoms: _770  and  _771
REMARK  292  A    between atoms: _770  and  _773
REMARK  293  A    between atoms: _773  and  _774
REMARK  294  A    between atoms: _780  and  _782
REMARK  295  A    between atoms: _782  and  _783
REMARK  296  A    between atoms: _782  and  _785
REMARK  297  A    between atoms: _785  and  _786
REMARK  298  A    between atoms: _786  and  _787
REMARK                            x       y       z     vdW  Elec       q    Type
REMARK                         _______ _______ _______ _____ _____    ______ ____
ROOT
ATOM      1  O   HOH     1      -9.327 -12.107 -22.860  0.00  0.00    +0.000 OA
ENDROOT
TORSDOF 0
REMARK  Name = ../refined-set-2016/4ca6/4ca6_pocket.pdb
REMARK  298 active torsions:
REMARK  status: ('A' for Active; 'I' for Inactive)
REMARK    1  A    between atoms: _1  and  _3
REMARK    2  A    between atoms: _3  and  _4
REMARK    3  A    between atoms: _3  and  _6
REMARK    4  A    between atoms: _6  and  _7
REMARK    5  A    between atoms: _10  and  _12
REMARK    6  A    between atoms: _12  and  _13
REMARK    7  A    between atoms: _12  and  _15
REMARK    8  A    between atoms: _15  and  _16
REMARK    9  A    between atoms: _18  and  _20
REMARK   10  A    between atoms: _20  and  _21
REMARK   11  A    between atoms: _20  and  _23
REMARK   12  A    between atoms: _23  and  _24
REMARK   13  A    between atoms: _29  and  _30
REMARK   14  A    between atoms: _32  and  _34
REMARK   15  A    between atoms: _34  and  _35
REMARK   16  A    between atoms: _34  and  _37
REMARK   17  A    between atoms: _37  and  _38
REMARK   18  A    between atoms: _48  and  _50
REMARK   19  A    between atoms: _50  and  _51
REMARK   20  A    between atoms: _50  and  _53
REMARK   21  A    between atoms: _53  and  _54
REMARK   22  A    between atoms: _57  and  _59
REMARK   23  A    between atoms: _59  and  _60
REMARK   24  A    between atoms: _59  and  _62
REMARK   25  A    between atoms: _62  and  _63
REMARK   26  A    between atoms: _73  and  _75
REMARK   27  A    between atoms: _75  and  _76
REMARK   28  A    between atoms: _75  and  _78
REMARK   29  A    between atoms: _78  and  _79
REMARK   30  A    between atoms: _79  and  _80
REMARK   31  A    between atoms: _85  and  _87
REMARK   32  A    between atoms: _87  and  _88
REMARK   33  A    between atoms: _87  and  _90
REMARK   34  A    between atoms: _90  and  _91
REMARK   35  A    between atoms: _93  and  _95
REMARK   36  A    between atoms: _95  and  _96
REMARK   37  A    between atoms: _95  and  _98
REMARK   38  A    between atoms: _98  and  _99
REMARK   39  A    between atoms: _99  and  _100
REMARK   40  A    between atoms: _103  and  _105
REMARK   41  A    between atoms: _105  and  _106
REMARK   42  A    between atoms: _105  and  _108
REMARK   43  A    between atoms: _111  and  _113
REMARK   44  A    between atoms: _113  and  _114
REMARK   45  A    between atoms: _113  and  _116
REMARK   46  A    between atoms: _118  and  _120
REMARK   47  A    between atoms: _120  and  _121
REMARK   48  A    between atoms: _120  and  _123
REMARK   49  A    between atoms: _123  and  _124
REMARK   50  A    between atoms: _129  and  _131
REMARK   51  A    between atoms: _131  and  _132
REMARK   52  A    between atoms: _135  and  _137
REMARK   53  A    between atoms: _137  and  _138
REMARK   54  A    between atoms: _137  and  _140
REMARK   55  A    between atoms: _140  and  _141
REMARK   56  A    between atoms: _143  and  _145
REMARK   57  A    between atoms: _145  and  _146
REMARK   58  A    between atoms: _149  and  _151
REMARK   59  A    between atoms: _151  and  _152
REMARK   60  A    between atoms: _151  and  _154
REMARK   61  A    between atoms: _154  and  _155
REMARK   62  A    between atoms: _165  and  _167
REMARK   63  A    between atoms: _167  and  _168
REMARK   64  A    between atoms: _167  and  _170
REMARK   65  A    between atoms: _170  and  _171
REMARK   66  A    between atoms: _174  and  _176
REMARK   67  A    between atoms: _176  and  _177
REMARK   68  A    between atoms: _176  and  _179
REMARK   69  A    between atoms: _179  and  _180
REMARK   70  A    between atoms: _185  and  _186
REMARK   71  A    between atoms: _188  and  _190
REMARK   72  A    between atoms: _190  and  _191
REMARK   73  A    between atoms: _190  and  _193
REMARK   74  A    between atoms: _193  and  _194
REMARK   75  A    between atoms: _194  and  _195
REMARK   76  A    between atoms: _195  and  _196
REMARK   77  A    between atoms: _205  and  _207
REMARK   78  A    between atoms: _207  and  _208
REMARK   79  A    between atoms: _207  and  _210
REMARK   80  A    between atoms: _210  and  _211
REMARK   81  A    between atoms: _214  and  _216
REMARK   82  A    between atoms: _216  and  _217
REMARK   83  A    between atoms: _216  and  _219
REMARK   84  A    between atoms: _219  and  _220
REMARK   85  A    between atoms: _220  and  _221
REMARK   86  A    between atoms: _221  and  _222
REMARK   87  A    between atoms: _222  and  _223
REMARK   88  A    between atoms: _227  and  _229
REMARK   89  A    between atoms: _229  and  _230
REMARK   90  A    between atoms: _229  and  _232
REMARK   91  A    between atoms: _232  and  _233
REMARK   92  A    between atoms: _233  and  _234
REMARK   93  A    between atoms: _239  and  _241
REMARK   94  A    between atoms: _241  and  _242
REMARK   95  A    between atoms: _241  and  _244
REMARK   96  A    between atoms: _244  and  _245
REMARK   97  A    between atoms: _245  and  _246
REMARK   98  A    between atoms: _246  and  _247
REMARK   99  A    between atoms: _256  and  _258
REMARK  100  A    between atoms: _258  and  _259
REMARK  101  A    between atoms: _258  and  _261
REMARK  102  A    between atoms: _261  and  _262
REMARK  103  A    between atoms: _262  and  _263
REMARK  104  A    between atoms: _265  and  _267
REMARK  105  A    between atoms: _267  and  _268
REMARK  106  A    between atoms: _267  and  _270
REMARK  107  A    between atoms: _270  and  _271
REMARK  108  A    between atoms: _274  and  _276
REMARK  109  A    between atoms: _276  and  _277
REMARK  110  A    between atoms: _276  and  _279
REMARK  111  A    between atoms: _279  and  _280
REMARK  112  A    between atoms: _280  and  _281
REMARK  113  A    between atoms: _286  and  _288
REMARK  114  A    between atoms: _288  and  _289
REMARK  115  A    between atoms: _288  and  _291
REMARK  116  A    between atoms: _291  and  _292
REMARK  117  A    between atoms: _295  and  _297
REMARK  118  A    between atoms: _297  and  _298
REMARK  119  A    between atoms: _297  and  _300
REMARK  120  A    between atoms: _300  and  _301
REMARK  121  A    between atoms: _303  and  _305
REMARK  122  A    between atoms: _305  and  _306
REMARK  123  A    between atoms: _305  and  _308
REMARK  124  A    between atoms: _308  and  _309
REMARK  125  A    between atoms: _312  and  _314
REMARK  126  A    between atoms: _314  and  _315
REMARK  127  A    between atoms: _314  and  _317
REMARK  128  A    between atoms: _320  and  _322
REMARK  129  A    between atoms: _322  and  _323
REMARK  130  A    between atoms: _322  and  _325
REMARK  131  A    between atoms: _325  and  _326
REMARK  132  A    between atoms: _331  and  _333
REMARK  133  A    between atoms: _344  and  _347
REMARK  134  A    between atoms: _347  and  _348
REMARK  135  A    between atoms: _348  and  _349
REMARK  136  A    between atoms: _354  and  _357
REMARK  137  A    between atoms: _357  and  _358
REMARK  138  A    between atoms: _358  and  _359
REMARK  139  A    between atoms: _368  and  _369
REMARK  140  A    between atoms: _377  and  _379
REMARK  141  A    between atoms: _379  and  _380
REMARK  142  A    between atoms: _379  and  _382
REMARK  143  A    between atoms: _382  and  _383
REMARK  144  A    between atoms: _386  and  _388
REMARK  145  A    between atoms: _388  and  _389
REMARK  146  A    between atoms: _388  and  _391
REMARK  147  A    between atoms: _391  and  _392
REMARK  148  A    between atoms: _397  and  _398
REMARK  149  A    between atoms: _400  and  _402
REMARK  150  A    between atoms: _402  and  _403
REMARK  151  A    between atoms: _402  and  _405
REMARK  152  A    between atoms: _405  and  _406
REMARK  153  A    between atoms: _411  and  _412
REMARK  154  A    between atoms: _414  and  _416
REMARK  155  A    between atoms: _416  and  _417
REMARK  156  A    between atoms: _416  and  _419
REMARK  157  A    between atoms: _419  and  _420
REMARK  158  A    between atoms: _425  and  _426
REMARK  159  A    between atoms: _428  and  _430
REMARK  160  A    between atoms: _430  and  _431
REMARK  161  A    between atoms: _430  and  _433
REMARK  162  A    between atoms: _433  and  _434
REMARK  163  A    between atoms: _434  and  _435
REMARK  164  A    between atoms: _435  and  _436
REMARK  165  A    between atoms: _445  and  _447
REMARK  166  A    between atoms: _447  and  _448
REMARK  167  A    between atoms: _447  and  _450
REMARK  168  A    between atoms: _450  and  _451
REMARK  169  A    between atoms: _451  and  _452
REMARK  170  A    between atoms: _452  and  _453
REMARK  171  A    between atoms: _462  and  _464
REMARK  172  A    between atoms: _464  and  _465
REMARK  173  A    between atoms: _467  and  _469
REMARK  174  A    between atoms: _469  and  _470
REMARK  175  A    between atoms: _473  and  _475
REMARK  176  A    between atoms: _475  and  _476
REMARK  177  A    between atoms: _475  and  _478
REMARK  178  A    between atoms: _478  and  _479
REMARK  179  A    between atoms: _485  and  _486
REMARK  180  A    between atoms: _491  and  _493
REMARK  181  A    between atoms: _493  and  _494
REMARK  182  A    between atoms: _496  and  _498
REMARK  183  A    between atoms: _498  and  _499
REMARK  184  A    between atoms: _498  and  _501
REMARK  185  A    between atoms: _501  and  _502
REMARK  186  A    between atoms: _508  and  _510
REMARK  187  A    between atoms: _510  and  _511
REMARK  188  A    between atoms: _510  and  _513
REMARK  189  A    between atoms: _513  and  _514
REMARK  190  A    between atoms: _519  and  _521
REMARK  191  A    between atoms: _521  and  _522
REMARK  192  A    between atoms: _521  and  _524
REMARK  193  A    between atoms: _524  and  _525
REMARK  194  A    between atoms: _525  and  _526
REMARK  195  A    between atoms: _526  and  _527
REMARK  196  A    between atoms: _527  and  ZN_792
REMARK  197  A    between atoms: _529  and  _531
REMARK  198  A    between atoms: _531  and  _532
REMARK  199  A    between atoms: _535  and  _537
REMARK  200  A    between atoms: _537  and  _538
REMARK  201  A    between atoms: _540  and  _542
REMARK  202  A    between atoms: _542  and  _543
REMARK  203  A    between atoms: _542  and  _545
REMARK  204  A    between atoms: _545  and  _546
REMARK  205  A    between atoms: _549  and  _551
REMARK  206  A    between atoms: _551  and  _552
REMARK  207  A    between atoms: _551  and  _554
REMARK  208  A    between atoms: _557  and  _559
REMARK  209  A    between atoms: _559  and  _560
REMARK  210  A    between atoms: _563  and  _565
REMARK  211  A    between atoms: _565  and  _566
REMARK  212  A    between atoms: _565  and  _568
REMARK  213  A    between atoms: _568  and  _569
REMARK  214  A    between atoms: _572  and  _574
REMARK  215  A    between atoms: _574  and  _575
REMARK  216  A    between atoms: _574  and  _577
REMARK  217  A    between atoms: _577  and  _578
REMARK  218  A    between atoms: _578  and  _579
REMARK  219  A    between atoms: _582  and  _584
REMARK  220  A    between atoms: _584  and  _585
REMARK  221  A    between atoms: _584  and  _587
REMARK  222  A    between atoms: _587  and  _588
REMARK  223  A    between atoms: _588  and  _589
REMARK  224  A    between atoms: _589  and  _590
REMARK  225  A    between atoms: _590  and  _591
REMARK  226  A    between atoms: _595  and  _597
REMARK  227  A    between atoms: _597  and  _598
REMARK  228  A    between atoms: _597  and  _600
REMARK  229  A    between atoms: _600  and  _601
REMARK  230  A    between atoms: _607  and  _609
REMARK  231  A    between atoms: _609  and  _610
REMARK  232  A    between atoms: _609  and  _612
REMARK  233  A    between atoms: _612  and  _613
REMARK  234  A    between atoms: _619  and  _621
REMARK  235  A    between atoms: _621  and  _622
REMARK  236  A    between atoms: _624  and  _626
REMARK  237  A    between atoms: _626  and  _627
REMARK  238  A    between atoms: _626  and  _629
REMARK  239  A    between atoms: _632  and  _634
REMARK  240  A    between atoms: _634  and  _635
REMARK  241  A    between atoms: _634  and  _637
REMARK  242  A    between atoms: _637  and  _638
REMARK  243  A    between atoms: _638  and  _639
REMARK  244  A    between atoms: _639  and  _640
REMARK  245  A    between atoms: _640  and  _641
REMARK  246  A    between atoms: _645  and  _647
REMARK  247  A    between atoms: _647  and  _648
REMARK  248  A    between atoms: _647  and  _650
REMARK  249  A    between atoms: _650  and  _651
REMARK  250  A    between atoms: _657  and  _659
REMARK  251  A    between atoms: _659  and  _660
REMARK  252  A    between atoms: _659  and  _662
REMARK  253  A    between atoms: _662  and  _663
REMARK  254  A    between atoms: _668  and  _670
REMARK  255  A    between atoms: _670  and  _671
REMARK  256  A    between atoms: _670  and  _673
REMARK  257  A    between atoms: _673  and  _674
REMARK  258  A    between atoms: _679  and  _681
REMARK  259  A    between atoms: _681  and  _682
REMARK  260  A    between atoms: _681  and  _684
REMARK  261  A    between atoms: _687  and  _689
REMARK  262  A    between atoms: _689  and  _690
REMARK  263  A    between atoms: _689  and  _692
REMARK  264  A    between atoms: _692  and  _693
REMARK  265  A    between atoms: _697  and  _698
REMARK  266  A    between atoms: _703  and  _705
REMARK  267  A    between atoms: _705  and  _706
REMARK  268  A    between atoms: _705  and  _708
REMARK  269  A    between atoms: _708  and  _709
REMARK  270  A    between atoms: _714  and  _715
REMARK  271  A    between atoms: _717  and  _719
REMARK  272  A    between atoms: _719  and  _720
REMARK  273  A    between atoms: _719  and  _722
REMARK  274  A    between atoms: _722  and  _723
REMARK  275  A    between atoms: _723  and  _724
REMARK  276  A    between atoms: _724  and  _725
REMARK  277  A    between atoms: _734  and  _736
REMARK  278  A    between atoms: _736  and  _737
REMARK  279  A    between atoms: _736  and  _739
REMARK  280  A    between atoms: _739  and  _740
REMARK  281  A    between atoms: _745  and  _746
REMARK  282  A    between atoms: _748  and  _750
REMARK  283  A    between atoms: _750  and  _751
REMARK  284  A    between atoms: _750  and  _753
REMARK  285  A    between atoms: _753  and  _754
REMARK  286  A    between atoms: _760  and  _762
REMARK  287  A    between atoms: _762  and  _763
REMARK  288  A    between atoms: _762  and  _765
REMARK  289  A    between atoms: _765  and  _766
REMARK  290  A    between atoms: _768  and  _770
REMARK  291  A    between atoms: _770  and  _771
REMARK  292  A    between atoms: _770  and  _773
REMARK  293  A    between atoms: _773  and  _774
REMARK  294  A    between atoms: _780  and  _782
REMARK  295  A    between atoms: _782  and  _783
REMARK  296  A    between atoms: _782  and  _785
REMARK  297  A    between atoms: _785  and  _786
REMARK  298  A    between atoms: _786  and  _787
REMARK                            x       y       z     vdW  Elec       q    Type
REMARK                         _______ _______ _______ _____ _____    ______ ____
ROOT
ATOM      1  O   HOH     1      -8.733 -15.241 -18.800  0.00  0.00    +0.000 OA
ENDROOT
TORSDOF 0
REMARK  Name = ../refined-set-2016/4ca6/4ca6_pocket.pdb
REMARK  298 active torsions:
REMARK  status: ('A' for Active; 'I' for Inactive)
REMARK    1  A    between atoms: _1  and  _3
REMARK    2  A    between atoms: _3  and  _4
REMARK    3  A    between atoms: _3  and  _6
REMARK    4  A    between atoms: _6  and  _7
REMARK    5  A    between atoms: _10  and  _12
REMARK    6  A    between atoms: _12  and  _13
REMARK    7  A    between atoms: _12  and  _15
REMARK    8  A    between atoms: _15  and  _16
REMARK    9  A    between atoms: _18  and  _20
REMARK   10  A    between atoms: _20  and  _21
REMARK   11  A    between atoms: _20  and  _23
REMARK   12  A    between atoms: _23  and  _24
REMARK   13  A    between atoms: _29  and  _30
REMARK   14  A    between atoms: _32  and  _34
REMARK   15  A    between atoms: _34  and  _35
REMARK   16  A    between atoms: _34  and  _37
REMARK   17  A    between atoms: _37  and  _38
REMARK   18  A    between atoms: _48  and  _50
REMARK   19  A    between atoms: _50  and  _51
REMARK   20  A    between atoms: _50  and  _53
REMARK   21  A    between atoms: _53  and  _54
REMARK   22  A    between atoms: _57  and  _59
REMARK   23  A    between atoms: _59  and  _60
REMARK   24  A    between atoms: _59  and  _62
REMARK   25  A    between atoms: _62  and  _63
REMARK   26  A    between atoms: _73  and  _75
REMARK   27  A    between atoms: _75  and  _76
REMARK   28  A    between atoms: _75  and  _78
REMARK   29  A    between atoms: _78  and  _79
REMARK   30  A    between atoms: _79  and  _80
REMARK   31  A    between atoms: _85  and  _87
REMARK   32  A    between atoms: _87  and  _88
REMARK   33  A    between atoms: _87  and  _90
REMARK   34  A    between atoms: _90  and  _91
REMARK   35  A    between atoms: _93  and  _95
REMARK   36  A    between atoms: _95  and  _96
REMARK   37  A    between atoms: _95  and  _98
REMARK   38  A    between atoms: _98  and  _99
REMARK   39  A    between atoms: _99  and  _100
REMARK   40  A    between atoms: _103  and  _105
REMARK   41  A    between atoms: _105  and  _106
REMARK   42  A    between atoms: _105  and  _108
REMARK   43  A    between atoms: _111  and  _113
REMARK   44  A    between atoms: _113  and  _114
REMARK   45  A    between atoms: _113  and  _116
REMARK   46  A    between atoms: _118  and  _120
REMARK   47  A    between atoms: _120  and  _121
REMARK   48  A    between atoms: _120  and  _123
REMARK   49  A    between atoms: _123  and  _124
REMARK   50  A    between atoms: _129  and  _131
REMARK   51  A    between atoms: _131  and  _132
REMARK   52  A    between atoms: _135  and  _137
REMARK   53  A    between atoms: _137  and  _138
REMARK   54  A    between atoms: _137  and  _140
REMARK   55  A    between atoms: _140  and  _141
REMARK   56  A    between atoms: _143  and  _145
REMARK   57  A    between atoms: _145  and  _146
REMARK   58  A    between atoms: _149  and  _151
REMARK   59  A    between atoms: _151  and  _152
REMARK   60  A    between atoms: _151  and  _154
REMARK   61  A    between atoms: _154  and  _155
REMARK   62  A    between atoms: _165  and  _167
REMARK   63  A    between atoms: _167  and  _168
REMARK   64  A    between atoms: _167  and  _170
REMARK   65  A    between atoms: _170  and  _171
REMARK   66  A    between atoms: _174  and  _176
REMARK   67  A    between atoms: _176  and  _177
REMARK   68  A    between atoms: _176  and  _179
REMARK   69  A    between atoms: _179  and  _180
REMARK   70  A    between atoms: _185  and  _186
REMARK   71  A    between atoms: _188  and  _190
REMARK   72  A    between atoms: _190  and  _191
REMARK   73  A    between atoms: _190  and  _193
REMARK   74  A    between atoms: _193  and  _194
REMARK   75  A    between atoms: _194  and  _195
REMARK   76  A    between atoms: _195  and  _196
REMARK   77  A    between atoms: _205  and  _207
REMARK   78  A    between atoms: _207  and  _208
REMARK   79  A    between atoms: _207  and  _210
REMARK   80  A    between atoms: _210  and  _211
REMARK   81  A    between atoms: _214  and  _216
REMARK   82  A    between atoms: _216  and  _217
REMARK   83  A    between atoms: _216  and  _219
REMARK   84  A    between atoms: _219  and  _220
REMARK   85  A    between atoms: _220  and  _221
REMARK   86  A    between atoms: _221  and  _222
REMARK   87  A    between atoms: _222  and  _223
REMARK   88  A    between atoms: _227  and  _229
REMARK   89  A    between atoms: _229  and  _230
REMARK   90  A    between atoms: _229  and  _232
REMARK   91  A    between atoms: _232  and  _233
REMARK   92  A    between atoms: _233  and  _234
REMARK   93  A    between atoms: _239  and  _241
REMARK   94  A    between atoms: _241  and  _242
REMARK   95  A    between atoms: _241  and  _244
REMARK   96  A    between atoms: _244  and  _245
REMARK   97  A    between atoms: _245  and  _246
REMARK   98  A    between atoms: _246  and  _247
REMARK   99  A    between atoms: _256  and  _258
REMARK  100  A    between atoms: _258  and  _259
REMARK  101  A    between atoms: _258  and  _261
REMARK  102  A    between atoms: _261  and  _262
REMARK  103  A    between atoms: _262  and  _263
REMARK  104  A    between atoms: _265  and  _267
REMARK  105  A    between atoms: _267  and  _268
REMARK  106  A    between atoms: _267  and  _270
REMARK  107  A    between atoms: _270  and  _271
REMARK  108  A    between atoms: _274  and  _276
REMARK  109  A    between atoms: _276  and  _277
REMARK  110  A    between atoms: _276  and  _279
REMARK  111  A    between atoms: _279  and  _280
REMARK  112  A    between atoms: _280  and  _281
REMARK  113  A    between atoms: _286  and  _288
REMARK  114  A    between atoms: _288  and  _289
REMARK  115  A    between atoms: _288  and  _291
REMARK  116  A    between atoms: _291  and  _292
REMARK  117  A    between atoms: _295  and  _297
REMARK  118  A    between atoms: _297  and  _298
REMARK  119  A    between atoms: _297  and  _300
REMARK  120  A    between atoms: _300  and  _301
REMARK  121  A    between atoms: _303  and  _305
REMARK  122  A    between atoms: _305  and  _306
REMARK  123  A    between atoms: _305  and  _308
REMARK  124  A    between atoms: _308  and  _309
REMARK  125  A    between atoms: _312  and  _314
REMARK  126  A    between atoms: _314  and  _315
REMARK  127  A    between atoms: _314  and  _317
REMARK  128  A    between atoms: _320  and  _322
REMARK  129  A    between atoms: _322  and  _323
REMARK  130  A    between atoms: _322  and  _325
REMARK  131  A    between atoms: _325  and  _326
REMARK  132  A    between atoms: _331  and  _333
REMARK  133  A    between atoms: _344  and  _347
REMARK  134  A    between atoms: _347  and  _348
REMARK  135  A    between atoms: _348  and  _349
REMARK  136  A    between atoms: _354  and  _357
REMARK  137  A    between atoms: _357  and  _358
REMARK  138  A    between atoms: _358  and  _359
REMARK  139  A    between atoms: _368  and  _369
REMARK  140  A    between atoms: _377  and  _379
REMARK  141  A    between atoms: _379  and  _380
REMARK  142  A    between atoms: _379  and  _382
REMARK  143  A    between atoms: _382  and  _383
REMARK  144  A    between atoms: _386  and  _388
REMARK  145  A    between atoms: _388  and  _389
REMARK  146  A    between atoms: _388  and  _391
REMARK  147  A    between atoms: _391  and  _392
REMARK  148  A    between atoms: _397  and  _398
REMARK  149  A    between atoms: _400  and  _402
REMARK  150  A    between atoms: _402  and  _403
REMARK  151  A    between atoms: _402  and  _405
REMARK  152  A    between atoms: _405  and  _406
REMARK  153  A    between atoms: _411  and  _412
REMARK  154  A    between atoms: _414  and  _416
REMARK  155  A    between atoms: _416  and  _417
REMARK  156  A    between atoms: _416  and  _419
REMARK  157  A    between atoms: _419  and  _420
REMARK  158  A    between atoms: _425  and  _426
REMARK  159  A    between atoms: _428  and  _430
REMARK  160  A    between atoms: _430  and  _431
REMARK  161  A    between atoms: _430  and  _433
REMARK  162  A    between atoms: _433  and  _434
REMARK  163  A    between atoms: _434  and  _435
REMARK  164  A    between atoms: _435  and  _436
REMARK  165  A    between atoms: _445  and  _447
REMARK  166  A    between atoms: _447  and  _448
REMARK  167  A    between atoms: _447  and  _450
REMARK  168  A    between atoms: _450  and  _451
REMARK  169  A    between atoms: _451  and  _452
REMARK  170  A    between atoms: _452  and  _453
REMARK  171  A    between atoms: _462  and  _464
REMARK  172  A    between atoms: _464  and  _465
REMARK  173  A    between atoms: _467  and  _469
REMARK  174  A    between atoms: _469  and  _470
REMARK  175  A    between atoms: _473  and  _475
REMARK  176  A    between atoms: _475  and  _476
REMARK  177  A    between atoms: _475  and  _478
REMARK  178  A    between atoms: _478  and  _479
REMARK  179  A    between atoms: _485  and  _486
REMARK  180  A    between atoms: _491  and  _493
REMARK  181  A    between atoms: _493  and  _494
REMARK  182  A    between atoms: _496  and  _498
REMARK  183  A    between atoms: _498  and  _499
REMARK  184  A    between atoms: _498  and  _501
REMARK  185  A    between atoms: _501  and  _502
REMARK  186  A    between atoms: _508  and  _510
REMARK  187  A    between atoms: _510  and  _511
REMARK  188  A    between atoms: _510  and  _513
REMARK  189  A    between atoms: _513  and  _514
REMARK  190  A    between atoms: _519  and  _521
REMARK  191  A    between atoms: _521  and  _522
REMARK  192  A    between atoms: _521  and  _524
REMARK  193  A    between atoms: _524  and  _525
REMARK  194  A    between atoms: _525  and  _526
REMARK  195  A    between atoms: _526  and  _527
REMARK  196  A    between atoms: _527  and  ZN_792
REMARK  197  A    between atoms: _529  and  _531
REMARK  198  A    between atoms: _531  and  _532
REMARK  199  A    between atoms: _535  and  _537
REMARK  200  A    between atoms: _537  and  _538
REMARK  201  A    between atoms: _540  and  _542
REMARK  202  A    between atoms: _542  and  _543
REMARK  203  A    between atoms: _542  and  _545
REMARK  204  A    between atoms: _545  and  _546
REMARK  205  A    between atoms: _549  and  _551
REMARK  206  A    between atoms: _551  and  _552
REMARK  207  A    between atoms: _551  and  _554
REMARK  208  A    between atoms: _557  and  _559
REMARK  209  A    between atoms: _559  and  _560
REMARK  210  A    between atoms: _563  and  _565
REMARK  211  A    between atoms: _565  and  _566
REMARK  212  A    between atoms: _565  and  _568
REMARK  213  A    between atoms: _568  and  _569
REMARK  214  A    between atoms: _572  and  _574
REMARK  215  A    between atoms: _574  and  _575
REMARK  216  A    between atoms: _574  and  _577
REMARK  217  A    between atoms: _577  and  _578
REMARK  218  A    between atoms: _578  and  _579
REMARK  219  A    between atoms: _582  and  _584
REMARK  220  A    between atoms: _584  and  _585
REMARK  221  A    between atoms: _584  and  _587
REMARK  222  A    between atoms: _587  and  _588
REMARK  223  A    between atoms: _588  and  _589
REMARK  224  A    between atoms: _589  and  _590
REMARK  225  A    between atoms: _590  and  _591
REMARK  226  A    between atoms: _595  and  _597
REMARK  227  A    between atoms: _597  and  _598
REMARK  228  A    between atoms: _597  and  _600
REMARK  229  A    between atoms: _600  and  _601
REMARK  230  A    between atoms: _607  and  _609
REMARK  231  A    between atoms: _609  and  _610
REMARK  232  A    between atoms: _609  and  _612
REMARK  233  A    between atoms: _612  and  _613
REMARK  234  A    between atoms: _619  and  _621
REMARK  235  A    between atoms: _621  and  _622
REMARK  236  A    between atoms: _624  and  _626
REMARK  237  A    between atoms: _626  and  _627
REMARK  238  A    between atoms: _626  and  _629
REMARK  239  A    between atoms: _632  and  _634
REMARK  240  A    between atoms: _634  and  _635
REMARK  241  A    between atoms: _634  and  _637
REMARK  242  A    between atoms: _637  and  _638
REMARK  243  A    between atoms: _638  and  _639
REMARK  244  A    between atoms: _639  and  _640
REMARK  245  A    between atoms: _640  and  _641
REMARK  246  A    between atoms: _645  and  _647
REMARK  247  A    between atoms: _647  and  _648
REMARK  248  A    between atoms: _647  and  _650
REMARK  249  A    between atoms: _650  and  _651
REMARK  250  A    between atoms: _657  and  _659
REMARK  251  A    between atoms: _659  and  _660
REMARK  252  A    between atoms: _659  and  _662
REMARK  253  A    between atoms: _662  and  _663
REMARK  254  A    between atoms: _668  and  _670
REMARK  255  A    between atoms: _670  and  _671
REMARK  256  A    between atoms: _670  and  _673
REMARK  257  A    between atoms: _673  and  _674
REMARK  258  A    between atoms: _679  and  _681
REMARK  259  A    between atoms: _681  and  _682
REMARK  260  A    between atoms: _681  and  _684
REMARK  261  A    between atoms: _687  and  _689
REMARK  262  A    between atoms: _689  and  _690
REMARK  263  A    between atoms: _689  and  _692
REMARK  264  A    between atoms: _692  and  _693
REMARK  265  A    between atoms: _697  and  _698
REMARK  266  A    between atoms: _703  and  _705
REMARK  267  A    between atoms: _705  and  _706
REMARK  268  A    between atoms: _705  and  _708
REMARK  269  A    between atoms: _708  and  _709
REMARK  270  A    between atoms: _714  and  _715
REMARK  271  A    between atoms: _717  and  _719
REMARK  272  A    between atoms: _719  and  _720
REMARK  273  A    between atoms: _719  and  _722
REMARK  274  A    between atoms: _722  and  _723
REMARK  275  A    between atoms: _723  and  _724
REMARK  276  A    between atoms: _724  and  _725
REMARK  277  A    between atoms: _734  and  _736
REMARK  278  A    between atoms: _736  and  _737
REMARK  279  A    between atoms: _736  and  _739
REMARK  280  A    between atoms: _739  and  _740
REMARK  281  A    between atoms: _745  and  _746
REMARK  282  A    between atoms: _748  and  _750
REMARK  283  A    between atoms: _750  and  _751
REMARK  284  A    between atoms: _750  and  _753
REMARK  285  A    between atoms: _753  and  _754
REMARK  286  A    between atoms: _760  and  _762
REMARK  287  A    between atoms: _762  and  _763
REMARK  288  A    between atoms: _762  and  _765
REMARK  289  A    between atoms: _765  and  _766
REMARK  290  A    between atoms: _768  and  _770
REMARK  291  A    between atoms: _770  and  _771
REMARK  292  A    between atoms: _770  and  _773
REMARK  293  A    between atoms: _773  and  _774
REMARK  294  A    between atoms: _780  and  _782
REMARK  295  A    between atoms: _782  and  _783
REMARK  296  A    between atoms: _782  and  _785
REMARK  297  A    between atoms: _785  and  _786
REMARK  298  A    between atoms: _786  and  _787
REMARK                            x       y       z     vdW  Elec       q    Type
REMARK                         _______ _______ _______ _____ _____    ______ ____
ROOT
ATOM      1  O   HOH     1      -9.650 -16.487 -23.157  0.00  0.00    +0.000 OA
ENDROOT
TORSDOF 0
