REMARK  Name = ../refined-set-2016/1ax0/1ax0_pocket.pdb
REMARK  103 active torsions:
REMARK  status: ('A' for Active; 'I' for Inactive)
REMARK    1  A    between atoms: _1  and  _3
REMARK    2  A    between atoms: _3  and  _4
REMARK    3  A    between atoms: _3  and  _6
REMARK    4  A    between atoms: _6  and  _7
REMARK    5  A    between atoms: _17  and  _19
REMARK    6  A    between atoms: _19  and  _20
REMARK    7  A    between atoms: _19  and  _22
REMARK    8  A    between atoms: _22  and  _23
REMARK    9  A    between atoms: _26  and  _28
REMARK   10  A    between atoms: _28  and  _29
REMARK   11  A    between atoms: _28  and  _31
REMARK   12  A    between atoms: _31  and  _32
REMARK   13  A    between atoms: _35  and  _36
REMARK   14  A    between atoms: _41  and  _43
REMARK   15  A    between atoms: _43  and  _44
REMARK   16  A    between atoms: _43  and  _46
REMARK   17  A    between atoms: _46  and  _47
REMARK   18  A    between atoms: _51  and  _52
REMARK   19  A    between atoms: _57  and  _59
REMARK   20  A    between atoms: _59  and  _60
REMARK   21  A    between atoms: _63  and  _65
REMARK   22  A    between atoms: _65  and  _66
REMARK   23  A    between atoms: _65  and  _68
REMARK   24  A    between atoms: _68  and  _69
REMARK   25  A    between atoms: _72  and  _74
REMARK   26  A    between atoms: _74  and  _75
REMARK   27  A    between atoms: _77  and  _79
REMARK   28  A    between atoms: _79  and  _80
REMARK   29  A    between atoms: _79  and  _82
REMARK   30  A    between atoms: _82  and  _83
REMARK   31  A    between atoms: _83  and  _84
REMARK   32  A    between atoms: _89  and  _91
REMARK   33  A    between atoms: _91  and  _92
REMARK   34  A    between atoms: _94  and  _96
REMARK   35  A    between atoms: _96  and  _97
REMARK   36  A    between atoms: _96  and  _99
REMARK   37  A    between atoms: _99  and  _100
REMARK   38  A    between atoms: _105  and  _106
REMARK   39  A    between atoms: _108  and  _110
REMARK   40  A    between atoms: _110  and  _111
REMARK   41  A    between atoms: _113  and  _115
REMARK   42  A    between atoms: _115  and  _116
REMARK   43  A    between atoms: _115  and  _118
REMARK   44  A    between atoms: _118  and  _119
REMARK   45  A    between atoms: _124  and  _125
REMARK   46  A    between atoms: _127  and  _129
REMARK   47  A    between atoms: _129  and  _130
REMARK   48  A    between atoms: _129  and  _132
REMARK   49  A    between atoms: _132  and  _133
REMARK   50  A    between atoms: _136  and  _138
REMARK   51  A    between atoms: _138  and  _139
REMARK   52  A    between atoms: _138  and  _141
REMARK   53  A    between atoms: _141  and  _142
REMARK   54  A    between atoms: _144  and  _146
REMARK   55  A    between atoms: _146  and  _147
REMARK   56  A    between atoms: _146  and  _149
REMARK   57  A    between atoms: _149  and  _150
REMARK   58  A    between atoms: _153  and  _155
REMARK   59  A    between atoms: _155  and  _156
REMARK   60  A    between atoms: _155  and  _158
REMARK   61  A    between atoms: _158  and  _159
REMARK   62  A    between atoms: _167  and  _170
REMARK   63  A    between atoms: _170  and  _171
REMARK   64  A    between atoms: _175  and  _176
REMARK   65  A    between atoms: _179  and  _181
REMARK   66  A    between atoms: _185  and  _186
REMARK   67  A    between atoms: _191  and  _193
REMARK   68  A    between atoms: _193  and  _194
REMARK   69  A    between atoms: _193  and  _196
REMARK   70  A    between atoms: _196  and  _197
REMARK   71  A    between atoms: _207  and  _209
REMARK   72  A    between atoms: _209  and  _210
REMARK   73  A    between atoms: _209  and  _212
REMARK   74  A    between atoms: _212  and  _213
REMARK   75  A    between atoms: _216  and  _218
REMARK   76  A    between atoms: _218  and  _219
REMARK   77  A    between atoms: _222  and  _224
REMARK   78  A    between atoms: _224  and  _225
REMARK   79  A    between atoms: _224  and  _227
REMARK   80  A    between atoms: _227  and  _228
REMARK   81  A    between atoms: _231  and  _233
REMARK   82  A    between atoms: _233  and  _234
REMARK   83  A    between atoms: _236  and  _238
REMARK   84  A    between atoms: _238  and  _239
REMARK   85  A    between atoms: _242  and  _244
REMARK   86  A    between atoms: _244  and  _245
REMARK   87  A    between atoms: _244  and  _247
REMARK   88  A    between atoms: _247  and  _248
REMARK   89  A    between atoms: _248  and  _249
REMARK   90  A    between atoms: _254  and  _256
REMARK   91  A    between atoms: _256  and  _257
REMARK   92  A    between atoms: _256  and  _259
REMARK   93  A    between atoms: _259  and  _260
REMARK   94  A    between atoms: _260  and  _261
REMARK   95  A    between atoms: _261  and  _262
REMARK   96  A    between atoms: _271  and  _273
REMARK   97  A    between atoms: _273  and  _274
REMARK   98  A    between atoms: _273  and  _276
REMARK   99  A    between atoms: _276  and  _277
REMARK  100  A    between atoms: _280  and  _282
REMARK  101  A    between atoms: _282  and  _283
REMARK  102  A    between atoms: _286  and  _288
REMARK  103  A    between atoms: _288  and  _289
REMARK                            x       y       z     vdW  Elec       q    Type
REMARK                         _______ _______ _______ _____ _____    ______ ____
ROOT
ATOM      1  C   TRP A   1      17.435  -9.151  28.730  0.00  0.00    +0.239 C 
ATOM      2  N   ASP A   2      17.383  -7.839  28.954  0.00  0.00    -0.297 N 
ATOM      3  H   ASP A   2      16.930  -7.496  29.825  0.00  0.00    +0.150 HD
ATOM      4  O   TRP A   1      17.904  -9.639  27.698  0.00  0.00    -0.274 OA
ENDROOT
BRANCH   1   5
ATOM      5  CA  TRP A   1      16.826 -10.059  29.801  0.00  0.00    +0.149 C 
BRANCH   5   6
ATOM      6  N   TRP A   1      16.762 -11.407  29.249  0.00  0.00    -0.238 NA
ATOM      7  H   TRP A   1      17.503 -12.093  29.497  0.00  0.00    +0.142 HD
ENDBRANCH   5   6
BRANCH   5   8
ATOM      8  CB  TRP A   1      17.683 -10.026  31.073  0.00  0.00    +0.054 C 
BRANCH   8   9
ATOM      9  CG  TRP A   1      19.131 -10.403  30.867  0.00  0.00    -0.002 A 
ATOM     10  CD2 TRP A   1      20.264  -9.527  30.941  0.00  0.00    +0.013 A 
ATOM     11  CE3 TRP A   1      20.420  -8.155  31.181  0.00  0.00    +0.001 A 
ATOM     12  CZ3 TRP A   1      21.706  -7.616  31.186  0.00  0.00    +0.000 A 
ATOM     13  CH2 TRP A   1      22.833  -8.427  30.955  0.00  0.00    +0.001 A 
ATOM     14  CZ2 TRP A   1      22.709  -9.773  30.717  0.00  0.00    +0.017 A 
ATOM     15  CE2 TRP A   1      21.417 -10.313  30.712  0.00  0.00    +0.056 A 
ATOM     16  NE1 TRP A   1      20.999 -11.603  30.508  0.00  0.00    -0.352 N 
ATOM     17  HE1 TRP A   1      21.618 -12.416  30.315  0.00  0.00    +0.166 HD
ATOM     18  CD1 TRP A   1      19.626 -11.647  30.601  0.00  0.00    +0.068 A 
ENDBRANCH   8   9
ENDBRANCH   5   8
ENDBRANCH   1   5
BRANCH   2  19
ATOM     19  CA  ASP A   2      17.942  -6.860  28.015  0.00  0.00    +0.160 C 
BRANCH  19  20
ATOM     20  C   ASP A   2      17.318  -7.006  26.622  0.00  0.00    +0.241 C 
ATOM     21  N   SER A   3      15.996  -7.142  26.581  0.00  0.00    -0.296 N 
ATOM     22  H   SER A   3      15.455  -7.136  27.469  0.00  0.00    +0.150 HD
ATOM     23  O   ASP A   2      18.018  -6.995  25.606  0.00  0.00    -0.273 OA
BRANCH  21  24
ATOM     24  CA  SER A   3      15.290  -7.299  25.316  0.00  0.00    +0.166 C 
BRANCH  24  25
ATOM     25  C   SER A   3      14.158  -6.289  25.177  0.00  0.00    +0.229 C 
ATOM     26  O   SER A   3      13.422  -6.037  26.130  0.00  0.00    -0.286 OA
ENDBRANCH  24  25
BRANCH  24  27
ATOM     27  CB  SER A   3      14.729  -8.719  25.197  0.00  0.00    +0.165 C 
BRANCH  27  28
ATOM     28  OG  SER A   3      14.095  -8.914  23.944  0.00  0.00    -0.380 OA
ATOM     29  H   SER A   3      14.752  -8.770  23.217  0.00  0.00    +0.211 HD
ENDBRANCH  27  28
ENDBRANCH  24  27
ENDBRANCH  21  24
ENDBRANCH  19  20
BRANCH  19  30
ATOM     30  CB  ASP A   2      19.471  -7.025  27.947  0.00  0.00    +0.143 C 
BRANCH  30  31
ATOM     31  CG  ASP A   2      20.177  -5.829  27.325  0.00  0.00    +0.367 C 
ATOM     32  OD2 ASP A   2      19.622  -4.711  27.335  0.00  0.00    -0.246 OA
ATOM     33  OD1 ASP A   2      21.310  -6.010  26.832  0.00  0.00    -0.246 OA
ENDBRANCH  30  31
ENDBRANCH  19  30
ENDBRANCH   2  19
TORSDOF 12
REMARK  Name = ../refined-set-2016/1ax0/1ax0_pocket.pdb
REMARK  103 active torsions:
REMARK  status: ('A' for Active; 'I' for Inactive)
REMARK    1  A    between atoms: _1  and  _3
REMARK    2  A    between atoms: _3  and  _4
REMARK    3  A    between atoms: _3  and  _6
REMARK    4  A    between atoms: _6  and  _7
REMARK    5  A    between atoms: _17  and  _19
REMARK    6  A    between atoms: _19  and  _20
REMARK    7  A    between atoms: _19  and  _22
REMARK    8  A    between atoms: _22  and  _23
REMARK    9  A    between atoms: _26  and  _28
REMARK   10  A    between atoms: _28  and  _29
REMARK   11  A    between atoms: _28  and  _31
REMARK   12  A    between atoms: _31  and  _32
REMARK   13  A    between atoms: _35  and  _36
REMARK   14  A    between atoms: _41  and  _43
REMARK   15  A    between atoms: _43  and  _44
REMARK   16  A    between atoms: _43  and  _46
REMARK   17  A    between atoms: _46  and  _47
REMARK   18  A    between atoms: _51  and  _52
REMARK   19  A    between atoms: _57  and  _59
REMARK   20  A    between atoms: _59  and  _60
REMARK   21  A    between atoms: _63  and  _65
REMARK   22  A    between atoms: _65  and  _66
REMARK   23  A    between atoms: _65  and  _68
REMARK   24  A    between atoms: _68  and  _69
REMARK   25  A    between atoms: _72  and  _74
REMARK   26  A    between atoms: _74  and  _75
REMARK   27  A    between atoms: _77  and  _79
REMARK   28  A    between atoms: _79  and  _80
REMARK   29  A    between atoms: _79  and  _82
REMARK   30  A    between atoms: _82  and  _83
REMARK   31  A    between atoms: _83  and  _84
REMARK   32  A    between atoms: _89  and  _91
REMARK   33  A    between atoms: _91  and  _92
REMARK   34  A    between atoms: _94  and  _96
REMARK   35  A    between atoms: _96  and  _97
REMARK   36  A    between atoms: _96  and  _99
REMARK   37  A    between atoms: _99  and  _100
REMARK   38  A    between atoms: _105  and  _106
REMARK   39  A    between atoms: _108  and  _110
REMARK   40  A    between atoms: _110  and  _111
REMARK   41  A    between atoms: _113  and  _115
REMARK   42  A    between atoms: _115  and  _116
REMARK   43  A    between atoms: _115  and  _118
REMARK   44  A    between atoms: _118  and  _119
REMARK   45  A    between atoms: _124  and  _125
REMARK   46  A    between atoms: _127  and  _129
REMARK   47  A    between atoms: _129  and  _130
REMARK   48  A    between atoms: _129  and  _132
REMARK   49  A    between atoms: _132  and  _133
REMARK   50  A    between atoms: _136  and  _138
REMARK   51  A    between atoms: _138  and  _139
REMARK   52  A    between atoms: _138  and  _141
REMARK   53  A    between atoms: _141  and  _142
REMARK   54  A    between atoms: _144  and  _146
REMARK   55  A    between atoms: _146  and  _147
REMARK   56  A    between atoms: _146  and  _149
REMARK   57  A    between atoms: _149  and  _150
REMARK   58  A    between atoms: _153  and  _155
REMARK   59  A    between atoms: _155  and  _156
REMARK   60  A    between atoms: _155  and  _158
REMARK   61  A    between atoms: _158  and  _159
REMARK   62  A    between atoms: _167  and  _170
REMARK   63  A    between atoms: _170  and  _171
REMARK   64  A    between atoms: _175  and  _176
REMARK   65  A    between atoms: _179  and  _181
REMARK   66  A    between atoms: _185  and  _186
REMARK   67  A    between atoms: _191  and  _193
REMARK   68  A    between atoms: _193  and  _194
REMARK   69  A    between atoms: _193  and  _196
REMARK   70  A    between atoms: _196  and  _197
REMARK   71  A    between atoms: _207  and  _209
REMARK   72  A    between atoms: _209  and  _210
REMARK   73  A    between atoms: _209  and  _212
REMARK   74  A    between atoms: _212  and  _213
REMARK   75  A    between atoms: _216  and  _218
REMARK   76  A    between atoms: _218  and  _219
REMARK   77  A    between atoms: _222  and  _224
REMARK   78  A    between atoms: _224  and  _225
REMARK   79  A    between atoms: _224  and  _227
REMARK   80  A    between atoms: _227  and  _228
REMARK   81  A    between atoms: _231  and  _233
REMARK   82  A    between atoms: _233  and  _234
REMARK   83  A    between atoms: _236  and  _238
REMARK   84  A    between atoms: _238  and  _239
REMARK   85  A    between atoms: _242  and  _244
REMARK   86  A    between atoms: _244  and  _245
REMARK   87  A    between atoms: _244  and  _247
REMARK   88  A    between atoms: _247  and  _248
REMARK   89  A    between atoms: _248  and  _249
REMARK   90  A    between atoms: _254  and  _256
REMARK   91  A    between atoms: _256  and  _257
REMARK   92  A    between atoms: _256  and  _259
REMARK   93  A    between atoms: _259  and  _260
REMARK   94  A    between atoms: _260  and  _261
REMARK   95  A    between atoms: _261  and  _262
REMARK   96  A    between atoms: _271  and  _273
REMARK   97  A    between atoms: _273  and  _274
REMARK   98  A    between atoms: _273  and  _276
REMARK   99  A    between atoms: _276  and  _277
REMARK  100  A    between atoms: _280  and  _282
REMARK  101  A    between atoms: _282  and  _283
REMARK  102  A    between atoms: _286  and  _288
REMARK  103  A    between atoms: _288  and  _289
REMARK                            x       y       z     vdW  Elec       q    Type
REMARK                         _______ _______ _______ _____ _____    ______ ____
ROOT
ATOM      1  C   PRO A   3      10.910  -8.244  36.605  0.00  0.00    +0.241 C 
ATOM      2  O   PRO A   3      10.649  -7.353  37.416  0.00  0.00    -0.273 OA
ATOM      3  N   ALA A   4      11.029  -8.023  35.298  0.00  0.00    -0.297 N 
ATOM      4  H   ALA A   4      11.239  -8.827  34.673  0.00  0.00    +0.150 HD
ENDROOT
BRANCH   1  10
ATOM      5  C   LEU A   2      12.560  -9.214  39.007  0.00  0.00    +0.244 C 
ATOM      6  N   PRO A   3      11.426  -9.745  38.508  0.00  0.00    -0.272 N 
ATOM      7  CD  PRO A   3      10.375 -10.479  39.233  0.00  0.00    +0.094 C 
ATOM      8  CG  PRO A   3       9.200 -10.360  38.291  0.00  0.00    +0.024 C 
ATOM      9  CB  PRO A   3       9.852 -10.528  36.950  0.00  0.00    +0.031 C 
ATOM     10  CA  PRO A   3      11.127  -9.687  37.071  0.00  0.00    +0.152 C 
ATOM     11  O   LEU A   2      13.412  -8.699  38.281  0.00  0.00    -0.273 OA
BRANCH   5  12
ATOM     12  CA  LEU A   2      12.783  -9.315  40.518  0.00  0.00    +0.149 C 
BRANCH  12  14
ATOM     13  C   PRO A   1      14.626 -10.898  40.413  0.00  0.00    +0.239 C 
ATOM     14  N   LEU A   2      14.159  -9.719  40.808  0.00  0.00    -0.297 N 
ATOM     15  H   LEU A   2      14.782  -9.072  41.332  0.00  0.00    +0.150 HD
ATOM     16  O   PRO A   1      13.942 -11.711  39.792  0.00  0.00    -0.274 OA
BRANCH  13  18
ATOM     17  N   PRO A   1      16.402 -12.556  40.248  0.00  0.00    -0.210 NA
ATOM     18  CA  PRO A   1      16.077 -11.222  40.763  0.00  0.00    +0.149 C 
ATOM     19  CB  PRO A   1      17.044 -10.327  39.996  0.00  0.00    +0.028 C 
ATOM     20  CG  PRO A   1      17.127 -11.003  38.672  0.00  0.00    +0.021 C 
ATOM     21  CD  PRO A   1      17.263 -12.460  39.056  0.00  0.00    +0.089 C 
ENDBRANCH  13  18
ENDBRANCH  12  14
BRANCH  12  22
ATOM     22  CB  LEU A   2      12.482  -7.963  41.173  0.00  0.00    +0.029 C 
BRANCH  22  23
ATOM     23  CG  LEU A   2      12.621  -7.869  42.697  0.00  0.00    +0.002 C 
ATOM     24  CD2 LEU A   2      11.588  -8.753  43.381  0.00  0.00    +0.000 C 
ATOM     25  CD1 LEU A   2      12.471  -6.420  43.138  0.00  0.00    +0.000 C 
ENDBRANCH  22  23
ENDBRANCH  12  22
ENDBRANCH   5  12
ENDBRANCH   1  10
BRANCH   3  26
ATOM     26  CA  ALA A   4      10.876  -6.689  34.704  0.00  0.00    +0.149 C 
ATOM     27  CB  ALA A   4      12.109  -5.852  35.033  0.00  0.00    +0.031 C 
BRANCH  26  28
ATOM     28  C   ALA A   4      10.747  -6.862  33.187  0.00  0.00    +0.241 C 
ATOM     29  O   ALA A   4      11.078  -7.935  32.680  0.00  0.00    -0.273 OA
ATOM     30  N   ASP A   5      10.260  -5.854  32.449  0.00  0.00    -0.297 N 
ATOM     31  H   ASP A   5      10.190  -6.009  31.423  0.00  0.00    +0.150 HD
BRANCH  30  32
ATOM     32  CA  ASP A   5       9.817  -4.553  32.958  0.00  0.00    +0.160 C 
BRANCH  32  33
ATOM     33  C   ASP A   5       8.329  -4.300  32.690  0.00  0.00    +0.241 C 
ATOM     34  O   ASP A   5       7.694  -3.506  33.388  0.00  0.00    -0.273 OA
ATOM     35  N   GLY A   6       7.795  -4.933  31.650  0.00  0.00    -0.296 N 
ATOM     36  H   GLY A   6       8.390  -5.551  31.062  0.00  0.00    +0.150 HD
BRANCH  35  37
ATOM     37  CA  GLY A   6       6.385  -4.768  31.327  0.00  0.00    +0.163 C 
BRANCH  37  38
ATOM     38  C   GLY A   6       6.088  -4.564  29.853  0.00  0.00    +0.229 C 
ATOM     39  O   GLY A   6       6.968  -4.697  29.005  0.00  0.00    -0.286 OA
ENDBRANCH  37  38
ENDBRANCH  35  37
ENDBRANCH  32  33
BRANCH  32  40
ATOM     40  CB  ASP A   5      10.618  -3.420  32.308  0.00  0.00    +0.143 C 
BRANCH  40  41
ATOM     41  CG  ASP A   5      11.850  -3.043  33.104  0.00  0.00    +0.367 C 
ATOM     42  OD2 ASP A   5      11.711  -2.366  34.146  0.00  0.00    -0.246 OA
ATOM     43  OD1 ASP A   5      12.955  -3.427  32.684  0.00  0.00    -0.246 OA
ENDBRANCH  40  41
ENDBRANCH  32  40
ENDBRANCH  30  32
ENDBRANCH  26  28
ENDBRANCH   3  26
TORSDOF 14
REMARK  Name = ../refined-set-2016/1ax0/1ax0_pocket.pdb
REMARK  103 active torsions:
REMARK  status: ('A' for Active; 'I' for Inactive)
REMARK    1  A    between atoms: _1  and  _3
REMARK    2  A    between atoms: _3  and  _4
REMARK    3  A    between atoms: _3  and  _6
REMARK    4  A    between atoms: _6  and  _7
REMARK    5  A    between atoms: _17  and  _19
REMARK    6  A    between atoms: _19  and  _20
REMARK    7  A    between atoms: _19  and  _22
REMARK    8  A    between atoms: _22  and  _23
REMARK    9  A    between atoms: _26  and  _28
REMARK   10  A    between atoms: _28  and  _29
REMARK   11  A    between atoms: _28  and  _31
REMARK   12  A    between atoms: _31  and  _32
REMARK   13  A    between atoms: _35  and  _36
REMARK   14  A    between atoms: _41  and  _43
REMARK   15  A    between atoms: _43  and  _44
REMARK   16  A    between atoms: _43  and  _46
REMARK   17  A    between atoms: _46  and  _47
REMARK   18  A    between atoms: _51  and  _52
REMARK   19  A    between atoms: _57  and  _59
REMARK   20  A    between atoms: _59  and  _60
REMARK   21  A    between atoms: _63  and  _65
REMARK   22  A    between atoms: _65  and  _66
REMARK   23  A    between atoms: _65  and  _68
REMARK   24  A    between atoms: _68  and  _69
REMARK   25  A    between atoms: _72  and  _74
REMARK   26  A    between atoms: _74  and  _75
REMARK   27  A    between atoms: _77  and  _79
REMARK   28  A    between atoms: _79  and  _80
REMARK   29  A    between atoms: _79  and  _82
REMARK   30  A    between atoms: _82  and  _83
REMARK   31  A    between atoms: _83  and  _84
REMARK   32  A    between atoms: _89  and  _91
REMARK   33  A    between atoms: _91  and  _92
REMARK   34  A    between atoms: _94  and  _96
REMARK   35  A    between atoms: _96  and  _97
REMARK   36  A    between atoms: _96  and  _99
REMARK   37  A    between atoms: _99  and  _100
REMARK   38  A    between atoms: _105  and  _106
REMARK   39  A    between atoms: _108  and  _110
REMARK   40  A    between atoms: _110  and  _111
REMARK   41  A    between atoms: _113  and  _115
REMARK   42  A    between atoms: _115  and  _116
REMARK   43  A    between atoms: _115  and  _118
REMARK   44  A    between atoms: _118  and  _119
REMARK   45  A    between atoms: _124  and  _125
REMARK   46  A    between atoms: _127  and  _129
REMARK   47  A    between atoms: _129  and  _130
REMARK   48  A    between atoms: _129  and  _132
REMARK   49  A    between atoms: _132  and  _133
REMARK   50  A    between atoms: _136  and  _138
REMARK   51  A    between atoms: _138  and  _139
REMARK   52  A    between atoms: _138  and  _141
REMARK   53  A    between atoms: _141  and  _142
REMARK   54  A    between atoms: _144  and  _146
REMARK   55  A    between atoms: _146  and  _147
REMARK   56  A    between atoms: _146  and  _149
REMARK   57  A    between atoms: _149  and  _150
REMARK   58  A    between atoms: _153  and  _155
REMARK   59  A    between atoms: _155  and  _156
REMARK   60  A    between atoms: _155  and  _158
REMARK   61  A    between atoms: _158  and  _159
REMARK   62  A    between atoms: _167  and  _170
REMARK   63  A    between atoms: _170  and  _171
REMARK   64  A    between atoms: _175  and  _176
REMARK   65  A    between atoms: _179  and  _181
REMARK   66  A    between atoms: _185  and  _186
REMARK   67  A    between atoms: _191  and  _193
REMARK   68  A    between atoms: _193  and  _194
REMARK   69  A    between atoms: _193  and  _196
REMARK   70  A    between atoms: _196  and  _197
REMARK   71  A    between atoms: _207  and  _209
REMARK   72  A    between atoms: _209  and  _210
REMARK   73  A    between atoms: _209  and  _212
REMARK   74  A    between atoms: _212  and  _213
REMARK   75  A    between atoms: _216  and  _218
REMARK   76  A    between atoms: _218  and  _219
REMARK   77  A    between atoms: _222  and  _224
REMARK   78  A    between atoms: _224  and  _225
REMARK   79  A    between atoms: _224  and  _227
REMARK   80  A    between atoms: _227  and  _228
REMARK   81  A    between atoms: _231  and  _233
REMARK   82  A    between atoms: _233  and  _234
REMARK   83  A    between atoms: _236  and  _238
REMARK   84  A    between atoms: _238  and  _239
REMARK   85  A    between atoms: _242  and  _244
REMARK   86  A    between atoms: _244  and  _245
REMARK   87  A    between atoms: _244  and  _247
REMARK   88  A    between atoms: _247  and  _248
REMARK   89  A    between atoms: _248  and  _249
REMARK   90  A    between atoms: _254  and  _256
REMARK   91  A    between atoms: _256  and  _257
REMARK   92  A    between atoms: _256  and  _259
REMARK   93  A    between atoms: _259  and  _260
REMARK   94  A    between atoms: _260  and  _261
REMARK   95  A    between atoms: _261  and  _262
REMARK   96  A    between atoms: _271  and  _273
REMARK   97  A    between atoms: _273  and  _274
REMARK   98  A    between atoms: _273  and  _276
REMARK   99  A    between atoms: _276  and  _277
REMARK  100  A    between atoms: _280  and  _282
REMARK  101  A    between atoms: _282  and  _283
REMARK  102  A    between atoms: _286  and  _288
REMARK  103  A    between atoms: _288  and  _289
REMARK                            x       y       z     vdW  Elec       q    Type
REMARK                         _______ _______ _______ _____ _____    ______ ____
ROOT
ATOM      1  C   TYR A   3      12.696  -0.689  31.015  0.00  0.00    +0.241 C 
ATOM      2  N   GLY A   4      12.832   0.070  32.102  0.00  0.00    -0.295 N 
ATOM      3  H   GLY A   4      13.770   0.171  32.539  0.00  0.00    +0.150 HD
ATOM      4  O   TYR A   3      11.623  -0.832  30.424  0.00  0.00    -0.273 OA
ENDROOT
BRANCH   2   5
ATOM      5  CA  GLY A   4      11.692   0.760  32.689  0.00  0.00    +0.176 C 
BRANCH   5   6
ATOM      6  C   GLY A   4      10.999   1.771  31.792  0.00  0.00    +0.243 C 
ATOM      7  O   GLY A   4       9.889   2.204  32.098  0.00  0.00    -0.273 OA
ATOM      8  N   TYR A   5      11.649   2.160  30.697  0.00  0.00    -0.297 N 
ATOM      9  H   TYR A   5      12.593   1.770  30.501  0.00  0.00    +0.150 HD
BRANCH   8  10
ATOM     10  CA  TYR A   5      11.066   3.123  29.764  0.00  0.00    +0.153 C 
BRANCH  10  11
ATOM     11  C   TYR A   5      10.148   2.440  28.758  0.00  0.00    +0.241 C 
ATOM     12  N   LEU A   6      10.132   1.110  28.815  0.00  0.00    -0.298 N 
ATOM     13  H   LEU A   6      10.773   0.643  29.487  0.00  0.00    +0.150 HD
ATOM     14  O   TYR A   5       9.506   3.099  27.940  0.00  0.00    -0.273 OA
BRANCH  12  15
ATOM     15  CA  LEU A   6       9.268   0.265  27.990  0.00  0.00    +0.137 C 
BRANCH  15  16
ATOM     16  C   LEU A   6       9.354   0.400  26.469  0.00  0.00    +0.227 C 
ATOM     17  O   LEU A   6       8.445  -0.032  25.757  0.00  0.00    -0.286 OA
ENDBRANCH  15  16
BRANCH  15  18
ATOM     18  CB  LEU A   6       7.815   0.440  28.452  0.00  0.00    +0.028 C 
BRANCH  18  19
ATOM     19  CG  LEU A   6       7.572   0.252  29.955  0.00  0.00    +0.002 C 
ATOM     20  CD2 LEU A   6       7.890  -1.185  30.372  0.00  0.00    +0.000 C 
ATOM     21  CD1 LEU A   6       6.126   0.609  30.300  0.00  0.00    +0.000 C 
ENDBRANCH  18  19
ENDBRANCH  15  18
ENDBRANCH  12  15
ENDBRANCH  10  11
BRANCH  10  22
ATOM     22  CB  TYR A   5      12.161   3.929  29.071  0.00  0.00    +0.055 C 
BRANCH  22  23
ATOM     23  CG  TYR A   5      13.029   4.657  30.066  0.00  0.00    -0.020 A 
ATOM     24  CD2 TYR A   5      12.500   5.668  30.863  0.00  0.00    -0.001 A 
ATOM     25  CE2 TYR A   5      13.274   6.305  31.825  0.00  0.00    +0.036 A 
ATOM     26  CZ  TYR A   5      14.598   5.933  31.995  0.00  0.00    +0.134 A 
ATOM     27  CE1 TYR A   5      15.151   4.934  31.213  0.00  0.00    +0.036 A 
ATOM     28  CD1 TYR A   5      14.364   4.300  30.252  0.00  0.00    -0.001 A 
BRANCH  26  29
ATOM     29  OH  TYR A   5      15.360   6.562  32.953  0.00  0.00    -0.506 OA
ATOM     30  HH  TYR A   5      16.136   6.999  32.521  0.00  0.00    +0.292 HD
ENDBRANCH  26  29
ENDBRANCH  22  23
ENDBRANCH  10  22
ENDBRANCH   8  10
ENDBRANCH   5   6
ENDBRANCH   2   5
BRANCH   1  31
ATOM     31  CA  TYR A   3      13.960  -1.377  30.495  0.00  0.00    +0.153 C 
BRANCH  31  33
ATOM     32  C   GLY A   2      14.012  -0.083  28.412  0.00  0.00    +0.243 C 
ATOM     33  N   TYR A   3      14.068  -1.253  29.043  0.00  0.00    -0.297 N 
ATOM     34  H   TYR A   3      14.194  -2.117  28.478  0.00  0.00    +0.150 HD
ATOM     35  O   GLY A   2      13.878   0.998  28.995  0.00  0.00    -0.273 OA
BRANCH  32  36
ATOM     36  CA  GLY A   2      14.136  -0.137  26.902  0.00  0.00    +0.176 C 
BRANCH  36  38
ATOM     37  C   GLN A   1      14.152   2.134  26.066  0.00  0.00    +0.238 C 
ATOM     38  N   GLY A   2      14.822   1.024  26.366  0.00  0.00    -0.296 N 
ATOM     39  H   GLY A   2      15.850   0.988  26.214  0.00  0.00    +0.150 HD
ATOM     40  O   GLN A   1      12.931   2.240  26.191  0.00  0.00    -0.274 OA
BRANCH  37  41
ATOM     41  CA  GLN A   1      14.984   3.291  25.521  0.00  0.00    +0.145 C 
BRANCH  41  42
ATOM     42  N   GLN A   1      14.252   4.045  24.507  0.00  0.00    -0.238 NA
ATOM     43  H   GLN A   1      13.887   4.992  24.736  0.00  0.00    +0.142 HD
ENDBRANCH  41  42
BRANCH  41  44
ATOM     44  CB  GLN A   1      15.416   4.210  26.664  0.00  0.00    +0.036 C 
BRANCH  44  45
ATOM     45  CG  GLN A   1      16.510   5.196  26.282  0.00  0.00    +0.087 C 
BRANCH  45  46
ATOM     46  CD  GLN A   1      17.821   4.507  25.944  0.00  0.00    +0.219 C 
ATOM     47  NE2 GLN A   1      18.429   3.874  26.940  0.00  0.00    -0.329 N 
ATOM     48 HE21 GLN A   1      18.006   3.872  27.890  0.00  0.00    +0.145 HD
ATOM     49 HE22 GLN A   1      19.328   3.380  26.770  0.00  0.00    +0.145 HD
ATOM     50  OE1 GLN A   1      18.278   4.541  24.800  0.00  0.00    -0.275 OA
ENDBRANCH  45  46
ENDBRANCH  44  45
ENDBRANCH  41  44
ENDBRANCH  37  41
ENDBRANCH  36  38
ENDBRANCH  32  36
ENDBRANCH  31  33
BRANCH  31  51
ATOM     51  CB  TYR A   3      15.210  -0.812  31.188  0.00  0.00    +0.055 C 
BRANCH  51  52
ATOM     52  CG  TYR A   3      16.509  -1.261  30.561  0.00  0.00    -0.020 A 
ATOM     53  CD2 TYR A   3      17.531  -0.348  30.306  0.00  0.00    -0.001 A 
ATOM     54  CE2 TYR A   3      18.716  -0.746  29.695  0.00  0.00    +0.036 A 
ATOM     55  CZ  TYR A   3      18.886  -2.071  29.334  0.00  0.00    +0.134 A 
ATOM     56  CE1 TYR A   3      17.888  -3.000  29.580  0.00  0.00    +0.036 A 
ATOM     57  CD1 TYR A   3      16.706  -2.591  30.192  0.00  0.00    -0.001 A 
BRANCH  55  58
ATOM     58  OH  TYR A   3      20.052  -2.468  28.722  0.00  0.00    -0.506 OA
ATOM     59  HH  TYR A   3      20.010  -3.439  28.533  0.00  0.00    +0.292 HD
ENDBRANCH  55  58
ENDBRANCH  51  52
ENDBRANCH  31  51
ENDBRANCH   1  31
TORSDOF 23
REMARK  Name = ../refined-set-2016/1ax0/1ax0_pocket.pdb
REMARK  103 active torsions:
REMARK  status: ('A' for Active; 'I' for Inactive)
REMARK    1  A    between atoms: _1  and  _3
REMARK    2  A    between atoms: _3  and  _4
REMARK    3  A    between atoms: _3  and  _6
REMARK    4  A    between atoms: _6  and  _7
REMARK    5  A    between atoms: _17  and  _19
REMARK    6  A    between atoms: _19  and  _20
REMARK    7  A    between atoms: _19  and  _22
REMARK    8  A    between atoms: _22  and  _23
REMARK    9  A    between atoms: _26  and  _28
REMARK   10  A    between atoms: _28  and  _29
REMARK   11  A    between atoms: _28  and  _31
REMARK   12  A    between atoms: _31  and  _32
REMARK   13  A    between atoms: _35  and  _36
REMARK   14  A    between atoms: _41  and  _43
REMARK   15  A    between atoms: _43  and  _44
REMARK   16  A    between atoms: _43  and  _46
REMARK   17  A    between atoms: _46  and  _47
REMARK   18  A    between atoms: _51  and  _52
REMARK   19  A    between atoms: _57  and  _59
REMARK   20  A    between atoms: _59  and  _60
REMARK   21  A    between atoms: _63  and  _65
REMARK   22  A    between atoms: _65  and  _66
REMARK   23  A    between atoms: _65  and  _68
REMARK   24  A    between atoms: _68  and  _69
REMARK   25  A    between atoms: _72  and  _74
REMARK   26  A    between atoms: _74  and  _75
REMARK   27  A    between atoms: _77  and  _79
REMARK   28  A    between atoms: _79  and  _80
REMARK   29  A    between atoms: _79  and  _82
REMARK   30  A    between atoms: _82  and  _83
REMARK   31  A    between atoms: _83  and  _84
REMARK   32  A    between atoms: _89  and  _91
REMARK   33  A    between atoms: _91  and  _92
REMARK   34  A    between atoms: _94  and  _96
REMARK   35  A    between atoms: _96  and  _97
REMARK   36  A    between atoms: _96  and  _99
REMARK   37  A    between atoms: _99  and  _100
REMARK   38  A    between atoms: _105  and  _106
REMARK   39  A    between atoms: _108  and  _110
REMARK   40  A    between atoms: _110  and  _111
REMARK   41  A    between atoms: _113  and  _115
REMARK   42  A    between atoms: _115  and  _116
REMARK   43  A    between atoms: _115  and  _118
REMARK   44  A    between atoms: _118  and  _119
REMARK   45  A    between atoms: _124  and  _125
REMARK   46  A    between atoms: _127  and  _129
REMARK   47  A    between atoms: _129  and  _130
REMARK   48  A    between atoms: _129  and  _132
REMARK   49  A    between atoms: _132  and  _133
REMARK   50  A    between atoms: _136  and  _138
REMARK   51  A    between atoms: _138  and  _139
REMARK   52  A    between atoms: _138  and  _141
REMARK   53  A    between atoms: _141  and  _142
REMARK   54  A    between atoms: _144  and  _146
REMARK   55  A    between atoms: _146  and  _147
REMARK   56  A    between atoms: _146  and  _149
REMARK   57  A    between atoms: _149  and  _150
REMARK   58  A    between atoms: _153  and  _155
REMARK   59  A    between atoms: _155  and  _156
REMARK   60  A    between atoms: _155  and  _158
REMARK   61  A    between atoms: _158  and  _159
REMARK   62  A    between atoms: _167  and  _170
REMARK   63  A    between atoms: _170  and  _171
REMARK   64  A    between atoms: _175  and  _176
REMARK   65  A    between atoms: _179  and  _181
REMARK   66  A    between atoms: _185  and  _186
REMARK   67  A    between atoms: _191  and  _193
REMARK   68  A    between atoms: _193  and  _194
REMARK   69  A    between atoms: _193  and  _196
REMARK   70  A    between atoms: _196  and  _197
REMARK   71  A    between atoms: _207  and  _209
REMARK   72  A    between atoms: _209  and  _210
REMARK   73  A    between atoms: _209  and  _212
REMARK   74  A    between atoms: _212  and  _213
REMARK   75  A    between atoms: _216  and  _218
REMARK   76  A    between atoms: _218  and  _219
REMARK   77  A    between atoms: _222  and  _224
REMARK   78  A    between atoms: _224  and  _225
REMARK   79  A    between atoms: _224  and  _227
REMARK   80  A    between atoms: _227  and  _228
REMARK   81  A    between atoms: _231  and  _233
REMARK   82  A    between atoms: _233  and  _234
REMARK   83  A    between atoms: _236  and  _238
REMARK   84  A    between atoms: _238  and  _239
REMARK   85  A    between atoms: _242  and  _244
REMARK   86  A    between atoms: _244  and  _245
REMARK   87  A    between atoms: _244  and  _247
REMARK   88  A    between atoms: _247  and  _248
REMARK   89  A    between atoms: _248  and  _249
REMARK   90  A    between atoms: _254  and  _256
REMARK   91  A    between atoms: _256  and  _257
REMARK   92  A    between atoms: _256  and  _259
REMARK   93  A    between atoms: _259  and  _260
REMARK   94  A    between atoms: _260  and  _261
REMARK   95  A    between atoms: _261  and  _262
REMARK   96  A    between atoms: _271  and  _273
REMARK   97  A    between atoms: _273  and  _274
REMARK   98  A    between atoms: _273  and  _276
REMARK   99  A    between atoms: _276  and  _277
REMARK  100  A    between atoms: _280  and  _282
REMARK  101  A    between atoms: _282  and  _283
REMARK  102  A    between atoms: _286  and  _288
REMARK  103  A    between atoms: _288  and  _289
REMARK                            x       y       z     vdW  Elec       q    Type
REMARK                         _______ _______ _______ _____ _____    ______ ____
ROOT
ATOM      1  CA  SER A   1      11.613  10.078  33.186  0.00  0.00    +0.163 C 
ENDROOT
BRANCH   1   2
ATOM      2  N   SER A   1      12.780  10.015  32.310  0.00  0.00    -0.237 NA
ATOM      3  H   SER A   1      13.684  10.410  32.641  0.00  0.00    +0.142 HD
ENDBRANCH   1   2
BRANCH   1   4
ATOM      4  CB  SER A   1      10.975  11.467  33.270  0.00  0.00    +0.227 C 
ATOM      5  OG  SER A   1      10.256  11.766  34.221  0.00  0.00    -0.287 OA
ENDBRANCH   1   4
BRANCH   1   6
ATOM      6  C   SER A   1      11.984   9.599  34.595  0.00  0.00    +0.162 C 
BRANCH   6   7
ATOM      7  O   SER A   1      12.954  10.450  35.186  0.00  0.00    -0.380 OA
ATOM      8  H   SER A   1      12.591  11.369  35.249  0.00  0.00    +0.211 HD
ENDBRANCH   6   7
ENDBRANCH   1   6
TORSDOF 4
REMARK  Name = ../refined-set-2016/1ax0/1ax0_pocket.pdb
REMARK  103 active torsions:
REMARK  status: ('A' for Active; 'I' for Inactive)
REMARK    1  A    between atoms: _1  and  _3
REMARK    2  A    between atoms: _3  and  _4
REMARK    3  A    between atoms: _3  and  _6
REMARK    4  A    between atoms: _6  and  _7
REMARK    5  A    between atoms: _17  and  _19
REMARK    6  A    between atoms: _19  and  _20
REMARK    7  A    between atoms: _19  and  _22
REMARK    8  A    between atoms: _22  and  _23
REMARK    9  A    between atoms: _26  and  _28
REMARK   10  A    between atoms: _28  and  _29
REMARK   11  A    between atoms: _28  and  _31
REMARK   12  A    between atoms: _31  and  _32
REMARK   13  A    between atoms: _35  and  _36
REMARK   14  A    between atoms: _41  and  _43
REMARK   15  A    between atoms: _43  and  _44
REMARK   16  A    between atoms: _43  and  _46
REMARK   17  A    between atoms: _46  and  _47
REMARK   18  A    between atoms: _51  and  _52
REMARK   19  A    between atoms: _57  and  _59
REMARK   20  A    between atoms: _59  and  _60
REMARK   21  A    between atoms: _63  and  _65
REMARK   22  A    between atoms: _65  and  _66
REMARK   23  A    between atoms: _65  and  _68
REMARK   24  A    between atoms: _68  and  _69
REMARK   25  A    between atoms: _72  and  _74
REMARK   26  A    between atoms: _74  and  _75
REMARK   27  A    between atoms: _77  and  _79
REMARK   28  A    between atoms: _79  and  _80
REMARK   29  A    between atoms: _79  and  _82
REMARK   30  A    between atoms: _82  and  _83
REMARK   31  A    between atoms: _83  and  _84
REMARK   32  A    between atoms: _89  and  _91
REMARK   33  A    between atoms: _91  and  _92
REMARK   34  A    between atoms: _94  and  _96
REMARK   35  A    between atoms: _96  and  _97
REMARK   36  A    between atoms: _96  and  _99
REMARK   37  A    between atoms: _99  and  _100
REMARK   38  A    between atoms: _105  and  _106
REMARK   39  A    between atoms: _108  and  _110
REMARK   40  A    between atoms: _110  and  _111
REMARK   41  A    between atoms: _113  and  _115
REMARK   42  A    between atoms: _115  and  _116
REMARK   43  A    between atoms: _115  and  _118
REMARK   44  A    between atoms: _118  and  _119
REMARK   45  A    between atoms: _124  and  _125
REMARK   46  A    between atoms: _127  and  _129
REMARK   47  A    between atoms: _129  and  _130
REMARK   48  A    between atoms: _129  and  _132
REMARK   49  A    between atoms: _132  and  _133
REMARK   50  A    between atoms: _136  and  _138
REMARK   51  A    between atoms: _138  and  _139
REMARK   52  A    between atoms: _138  and  _141
REMARK   53  A    between atoms: _141  and  _142
REMARK   54  A    between atoms: _144  and  _146
REMARK   55  A    between atoms: _146  and  _147
REMARK   56  A    between atoms: _146  and  _149
REMARK   57  A    between atoms: _149  and  _150
REMARK   58  A    between atoms: _153  and  _155
REMARK   59  A    between atoms: _155  and  _156
REMARK   60  A    between atoms: _155  and  _158
REMARK   61  A    between atoms: _158  and  _159
REMARK   62  A    between atoms: _167  and  _170
REMARK   63  A    between atoms: _170  and  _171
REMARK   64  A    between atoms: _175  and  _176
REMARK   65  A    between atoms: _179  and  _181
REMARK   66  A    between atoms: _185  and  _186
REMARK   67  A    between atoms: _191  and  _193
REMARK   68  A    between atoms: _193  and  _194
REMARK   69  A    between atoms: _193  and  _196
REMARK   70  A    between atoms: _196  and  _197
REMARK   71  A    between atoms: _207  and  _209
REMARK   72  A    between atoms: _209  and  _210
REMARK   73  A    between atoms: _209  and  _212
REMARK   74  A    between atoms: _212  and  _213
REMARK   75  A    between atoms: _216  and  _218
REMARK   76  A    between atoms: _218  and  _219
REMARK   77  A    between atoms: _222  and  _224
REMARK   78  A    between atoms: _224  and  _225
REMARK   79  A    between atoms: _224  and  _227
REMARK   80  A    between atoms: _227  and  _228
REMARK   81  A    between atoms: _231  and  _233
REMARK   82  A    between atoms: _233  and  _234
REMARK   83  A    between atoms: _236  and  _238
REMARK   84  A    between atoms: _238  and  _239
REMARK   85  A    between atoms: _242  and  _244
REMARK   86  A    between atoms: _244  and  _245
REMARK   87  A    between atoms: _244  and  _247
REMARK   88  A    between atoms: _247  and  _248
REMARK   89  A    between atoms: _248  and  _249
REMARK   90  A    between atoms: _254  and  _256
REMARK   91  A    between atoms: _256  and  _257
REMARK   92  A    between atoms: _256  and  _259
REMARK   93  A    between atoms: _259  and  _260
REMARK   94  A    between atoms: _260  and  _261
REMARK   95  A    between atoms: _261  and  _262
REMARK   96  A    between atoms: _271  and  _273
REMARK   97  A    between atoms: _273  and  _274
REMARK   98  A    between atoms: _273  and  _276
REMARK   99  A    between atoms: _276  and  _277
REMARK  100  A    between atoms: _280  and  _282
REMARK  101  A    between atoms: _282  and  _283
REMARK  102  A    between atoms: _286  and  _288
REMARK  103  A    between atoms: _288  and  _289
REMARK                            x       y       z     vdW  Elec       q    Type
REMARK                         _______ _______ _______ _____ _____    ______ ____
ROOT
ATOM      1  CA  ASP A   1       4.181  -2.404  34.553  0.00  0.00    +0.144 C 
ENDROOT
BRANCH   1   2
ATOM      2  N   ASP A   1       2.864  -2.476  33.948  0.00  0.00    -0.239 NA
ATOM      3  H   ASP A   1       2.110  -1.900  34.375  0.00  0.00    +0.142 HD
ENDBRANCH   1   2
BRANCH   1   4
ATOM      4  C   ASP A   1       4.452  -3.429  35.645  0.00  0.00    +0.225 C 
ATOM      5  O   ASP A   1       3.770  -3.448  36.661  0.00  0.00    -0.287 OA
ENDBRANCH   1   4
BRANCH   1   6
ATOM      6  CB  ASP A   1       4.319  -0.999  35.114  0.00  0.00    +0.139 C 
BRANCH   6   7
ATOM      7  CG  ASP A   1       5.736  -0.612  35.379  0.00  0.00    +0.367 C 
ATOM      8  OD2 ASP A   1       6.615  -1.479  35.515  0.00  0.00    -0.246 OA
ATOM      9  OD1 ASP A   1       5.970   0.596  35.449  0.00  0.00    -0.246 OA
ENDBRANCH   6   7
ENDBRANCH   1   6
TORSDOF 4
REMARK  Name = ../refined-set-2016/1ax0/1ax0_pocket.pdb
REMARK  103 active torsions:
REMARK  status: ('A' for Active; 'I' for Inactive)
REMARK    1  A    between atoms: _1  and  _3
REMARK    2  A    between atoms: _3  and  _4
REMARK    3  A    between atoms: _3  and  _6
REMARK    4  A    between atoms: _6  and  _7
REMARK    5  A    between atoms: _17  and  _19
REMARK    6  A    between atoms: _19  and  _20
REMARK    7  A    between atoms: _19  and  _22
REMARK    8  A    between atoms: _22  and  _23
REMARK    9  A    between atoms: _26  and  _28
REMARK   10  A    between atoms: _28  and  _29
REMARK   11  A    between atoms: _28  and  _31
REMARK   12  A    between atoms: _31  and  _32
REMARK   13  A    between atoms: _35  and  _36
REMARK   14  A    between atoms: _41  and  _43
REMARK   15  A    between atoms: _43  and  _44
REMARK   16  A    between atoms: _43  and  _46
REMARK   17  A    between atoms: _46  and  _47
REMARK   18  A    between atoms: _51  and  _52
REMARK   19  A    between atoms: _57  and  _59
REMARK   20  A    between atoms: _59  and  _60
REMARK   21  A    between atoms: _63  and  _65
REMARK   22  A    between atoms: _65  and  _66
REMARK   23  A    between atoms: _65  and  _68
REMARK   24  A    between atoms: _68  and  _69
REMARK   25  A    between atoms: _72  and  _74
REMARK   26  A    between atoms: _74  and  _75
REMARK   27  A    between atoms: _77  and  _79
REMARK   28  A    between atoms: _79  and  _80
REMARK   29  A    between atoms: _79  and  _82
REMARK   30  A    between atoms: _82  and  _83
REMARK   31  A    between atoms: _83  and  _84
REMARK   32  A    between atoms: _89  and  _91
REMARK   33  A    between atoms: _91  and  _92
REMARK   34  A    between atoms: _94  and  _96
REMARK   35  A    between atoms: _96  and  _97
REMARK   36  A    between atoms: _96  and  _99
REMARK   37  A    between atoms: _99  and  _100
REMARK   38  A    between atoms: _105  and  _106
REMARK   39  A    between atoms: _108  and  _110
REMARK   40  A    between atoms: _110  and  _111
REMARK   41  A    between atoms: _113  and  _115
REMARK   42  A    between atoms: _115  and  _116
REMARK   43  A    between atoms: _115  and  _118
REMARK   44  A    between atoms: _118  and  _119
REMARK   45  A    between atoms: _124  and  _125
REMARK   46  A    between atoms: _127  and  _129
REMARK   47  A    between atoms: _129  and  _130
REMARK   48  A    between atoms: _129  and  _132
REMARK   49  A    between atoms: _132  and  _133
REMARK   50  A    between atoms: _136  and  _138
REMARK   51  A    between atoms: _138  and  _139
REMARK   52  A    between atoms: _138  and  _141
REMARK   53  A    between atoms: _141  and  _142
REMARK   54  A    between atoms: _144  and  _146
REMARK   55  A    between atoms: _146  and  _147
REMARK   56  A    between atoms: _146  and  _149
REMARK   57  A    between atoms: _149  and  _150
REMARK   58  A    between atoms: _153  and  _155
REMARK   59  A    between atoms: _155  and  _156
REMARK   60  A    between atoms: _155  and  _158
REMARK   61  A    between atoms: _158  and  _159
REMARK   62  A    between atoms: _167  and  _170
REMARK   63  A    between atoms: _170  and  _171
REMARK   64  A    between atoms: _175  and  _176
REMARK   65  A    between atoms: _179  and  _181
REMARK   66  A    between atoms: _185  and  _186
REMARK   67  A    between atoms: _191  and  _193
REMARK   68  A    between atoms: _193  and  _194
REMARK   69  A    between atoms: _193  and  _196
REMARK   70  A    between atoms: _196  and  _197
REMARK   71  A    between atoms: _207  and  _209
REMARK   72  A    between atoms: _209  and  _210
REMARK   73  A    between atoms: _209  and  _212
REMARK   74  A    between atoms: _212  and  _213
REMARK   75  A    between atoms: _216  and  _218
REMARK   76  A    between atoms: _218  and  _219
REMARK   77  A    between atoms: _222  and  _224
REMARK   78  A    between atoms: _224  and  _225
REMARK   79  A    between atoms: _224  and  _227
REMARK   80  A    between atoms: _227  and  _228
REMARK   81  A    between atoms: _231  and  _233
REMARK   82  A    between atoms: _233  and  _234
REMARK   83  A    between atoms: _236  and  _238
REMARK   84  A    between atoms: _238  and  _239
REMARK   85  A    between atoms: _242  and  _244
REMARK   86  A    between atoms: _244  and  _245
REMARK   87  A    between atoms: _244  and  _247
REMARK   88  A    between atoms: _247  and  _248
REMARK   89  A    between atoms: _248  and  _249
REMARK   90  A    between atoms: _254  and  _256
REMARK   91  A    between atoms: _256  and  _257
REMARK   92  A    between atoms: _256  and  _259
REMARK   93  A    between atoms: _259  and  _260
REMARK   94  A    between atoms: _260  and  _261
REMARK   95  A    between atoms: _261  and  _262
REMARK   96  A    between atoms: _271  and  _273
REMARK   97  A    between atoms: _273  and  _274
REMARK   98  A    between atoms: _273  and  _276
REMARK   99  A    between atoms: _276  and  _277
REMARK  100  A    between atoms: _280  and  _282
REMARK  101  A    between atoms: _282  and  _283
REMARK  102  A    between atoms: _286  and  _288
REMARK  103  A    between atoms: _288  and  _289
REMARK                            x       y       z     vdW  Elec       q    Type
REMARK                         _______ _______ _______ _____ _____    ______ ____
ROOT
ATOM      1  C   UNK A   2      11.084   3.290  40.288  0.00  0.00    +0.000 C 
ATOM      2  O   UNK A   2      10.061   3.374  40.969  0.00  0.00    +0.000 OA
ATOM      3  N   PRO A   3      12.065   4.210  40.377  0.00  0.00    +0.000 N 
ATOM      4  CA  PRO A   3      11.913   5.316  41.332  0.00  0.00    +0.000 C 
ATOM      5  CB  PRO A   3      13.251   6.056  41.220  0.00  0.00    +0.000 C 
ATOM      6  CG  PRO A   3      13.688   5.768  39.821  0.00  0.00    +0.000 C 
ATOM      7  CD  PRO A   3      13.367   4.298  39.693  0.00  0.00    +0.000 C 
ENDROOT
BRANCH   1  14
ATOM      8  C   UNK A   0       8.763  -2.085  38.576  0.00  0.00    +0.000 C 
ATOM      9  N   SER A   1       8.987  -1.918  39.875  0.00  0.00    +0.000 NA
ATOM     10  CA  SER A   1       8.867  -0.601  40.491  0.00  0.00    +0.000 C 
ATOM     11  C   SER A   1      10.135   0.247  40.401  0.00  0.00    +0.000 C 
ATOM     12  O   SER A   1      11.101   0.012  41.131  0.00  0.00    +0.000 OA
ATOM     13  N   UNK A   2      10.130   1.211  39.482  0.00  0.00    +0.000 N 
ATOM     14  C   UNK A   2      11.252   2.136  39.292  0.00  0.00    +0.000 C 
ATOM     15  C   UNK A   2      11.258   2.672  37.855  0.00  0.00    +0.000 C 
ATOM     16  C   UNK A   2      11.512   1.589  36.827  0.00  0.00    +0.000 C 
ATOM     17  O   UNK A   2      10.580   1.038  36.255  0.00  0.00    +0.000 OA
ATOM     18 CA   UNK A   2       8.306   0.328  35.980  0.00  0.00    +0.000 Ca
ATOM     19  H   UNK A   2       9.294   1.312  38.872  0.00  0.00    +0.000 HD
ATOM     20  H   SER A   1       9.251  -2.736  40.460  0.00  0.00    +0.000 HD
ATOM     21  O   UNK A   0       8.497  -1.156  37.830  0.00  0.00    +0.000 OA
BRANCH  16  22
ATOM     22  N   UNK A   2      12.778   1.284  36.583  0.00  0.00    +0.000 NA
ATOM     23  H   UNK A   2      13.539   1.777  37.092  0.00  0.00    +0.000 HD
ATOM     24  H   UNK A   2      13.011   0.551  35.882  0.00  0.00    +0.000 HD
ENDBRANCH  16  22
BRANCH  10  25
ATOM     25  CB  SER A   1       8.430  -0.735  41.955  0.00  0.00    +0.000 C 
BRANCH  25  26
ATOM     26  OG  SER A   1       8.088   0.527  42.502  0.00  0.00    +0.000 OA
ATOM     27  H   SER A   1       8.874   1.128  42.459  0.00  0.00    +0.000 HD
ENDBRANCH  25  26
ENDBRANCH  10  25
BRANCH   8  28
ATOM     28  C   UNK A   0       8.893  -3.498  38.027  0.00  0.00    +0.000 C 
BRANCH  28  29
ATOM     29  N   UNK A   0       7.748  -3.827  37.179  0.00  0.00    +0.000 NA
ATOM     30  H   UNK A   0       7.453  -3.165  36.433  0.00  0.00    +0.000 HD
ENDBRANCH  28  29
BRANCH  28  31
ATOM     31  C   UNK A   0      10.199  -3.635  37.235  0.00  0.00    +0.000 C 
BRANCH  31  32
ATOM     32  C   UNK A   0      11.433  -3.337  38.047  0.00  0.00    +0.000 A 
ATOM     33  C   UNK A   0      12.074  -4.347  38.754  0.00  0.00    +0.000 A 
ATOM     34  C   UNK A   0      13.202  -4.070  39.530  0.00  0.00    +0.000 A 
ATOM     35  C   UNK A   0      13.696  -2.770  39.599  0.00  0.00    +0.000 A 
ATOM     36  C   UNK A   0      13.064  -1.752  38.894  0.00  0.00    +0.000 A 
ATOM     37  C   UNK A   0      11.938  -2.040  38.122  0.00  0.00    +0.000 A 
ENDBRANCH  31  32
ENDBRANCH  28  31
ENDBRANCH   8  28
ENDBRANCH   1  14
BRANCH   4  38
ATOM     38  C   PRO A   3      10.717   6.243  41.095  0.00  0.00    +0.000 C 
ATOM     39  O   PRO A   3      10.255   6.904  42.021  0.00  0.00    +0.000 OA
ATOM     40  N   TRP A   4      10.207   6.263  39.867  0.00  0.00    +0.000 N 
ATOM     41  H   TRP A   4      10.637   5.661  39.136  0.00  0.00    +0.000 HD
BRANCH  40  42
ATOM     42  CA  TRP A   4       9.062   7.102  39.508  0.00  0.00    +0.000 C 
BRANCH  42  43
ATOM     43  C   TRP A   4       7.727   6.369  39.653  0.00  0.00    +0.000 C 
ATOM     44  N   ASP A   5       7.798   5.092  40.016  0.00  0.00    +0.000 N 
ATOM     45  H   ASP A   5       8.736   4.680  40.194  0.00  0.00    +0.000 HD
ATOM     46  O   TRP A   4       6.665   6.947  39.425  0.00  0.00    +0.000 OA
BRANCH  44  47
ATOM     47  CA  ASP A   5       6.624   4.240  40.177  0.00  0.00    +0.000 C 
BRANCH  47  48
ATOM     48  C   ASP A   5       6.094   4.123  41.587  0.00  0.00    +0.000 C 
ATOM     49  O   ASP A   5       6.807   4.392  42.558  0.00  0.00    +0.000 OA
ENDBRANCH  47  48
BRANCH  47  50
ATOM     50  CB  ASP A   5       6.968   2.805  39.766  0.00  0.00    +0.000 C 
BRANCH  50  51
ATOM     51  CG  ASP A   5       7.061   2.632  38.287  0.00  0.00    +0.000 C 
ATOM     52  OD2 ASP A   5       7.903   1.849  37.821  0.00  0.00    +0.000 OA
ATOM     53  OD1 ASP A   5       6.296   3.298  37.594  0.00  0.00    +0.000 OA
ENDBRANCH  50  51
ENDBRANCH  47  50
ENDBRANCH  44  47
ENDBRANCH  42  43
BRANCH  42  54
ATOM     54  CB  TRP A   4       9.211   7.589  38.065  0.00  0.00    +0.000 C 
BRANCH  54  55
ATOM     55  CG  TRP A   4       9.368   6.471  37.064  0.00  0.00    +0.000 A 
ATOM     56  CD1 TRP A   4       8.384   5.653  36.581  0.00  0.00    +0.000 A 
ATOM     57  NE1 TRP A   4       8.911   4.756  35.680  0.00  0.00    +0.000 N 
ATOM     58  CE2 TRP A   4      10.257   4.984  35.564  0.00  0.00    +0.000 A 
ATOM     59  CZ2 TRP A   4      11.216   4.337  34.777  0.00  0.00    +0.000 A 
ATOM     60  CH2 TRP A   4      12.512   4.779  34.865  0.00  0.00    +0.000 A 
ATOM     61  CZ3 TRP A   4      12.869   5.844  35.714  0.00  0.00    +0.000 A 
ATOM     62  CE3 TRP A   4      11.914   6.490  36.497  0.00  0.00    +0.000 A 
ATOM     63  HE1 TRP A   4       8.375   4.025  35.170  0.00  0.00    +0.000 HD
ATOM     64  CD2 TRP A   4      10.581   6.058  36.425  0.00  0.00    +0.000 A 
ENDBRANCH  54  55
ENDBRANCH  42  54
ENDBRANCH  40  42
ENDBRANCH   4  38
TORSDOF 17
REMARK  Name = ../refined-set-2016/1ax0/1ax0_pocket.pdb
REMARK  103 active torsions:
REMARK  status: ('A' for Active; 'I' for Inactive)
REMARK    1  A    between atoms: _1  and  _3
REMARK    2  A    between atoms: _3  and  _4
REMARK    3  A    between atoms: _3  and  _6
REMARK    4  A    between atoms: _6  and  _7
REMARK    5  A    between atoms: _17  and  _19
REMARK    6  A    between atoms: _19  and  _20
REMARK    7  A    between atoms: _19  and  _22
REMARK    8  A    between atoms: _22  and  _23
REMARK    9  A    between atoms: _26  and  _28
REMARK   10  A    between atoms: _28  and  _29
REMARK   11  A    between atoms: _28  and  _31
REMARK   12  A    between atoms: _31  and  _32
REMARK   13  A    between atoms: _35  and  _36
REMARK   14  A    between atoms: _41  and  _43
REMARK   15  A    between atoms: _43  and  _44
REMARK   16  A    between atoms: _43  and  _46
REMARK   17  A    between atoms: _46  and  _47
REMARK   18  A    between atoms: _51  and  _52
REMARK   19  A    between atoms: _57  and  _59
REMARK   20  A    between atoms: _59  and  _60
REMARK   21  A    between atoms: _63  and  _65
REMARK   22  A    between atoms: _65  and  _66
REMARK   23  A    between atoms: _65  and  _68
REMARK   24  A    between atoms: _68  and  _69
REMARK   25  A    between atoms: _72  and  _74
REMARK   26  A    between atoms: _74  and  _75
REMARK   27  A    between atoms: _77  and  _79
REMARK   28  A    between atoms: _79  and  _80
REMARK   29  A    between atoms: _79  and  _82
REMARK   30  A    between atoms: _82  and  _83
REMARK   31  A    between atoms: _83  and  _84
REMARK   32  A    between atoms: _89  and  _91
REMARK   33  A    between atoms: _91  and  _92
REMARK   34  A    between atoms: _94  and  _96
REMARK   35  A    between atoms: _96  and  _97
REMARK   36  A    between atoms: _96  and  _99
REMARK   37  A    between atoms: _99  and  _100
REMARK   38  A    between atoms: _105  and  _106
REMARK   39  A    between atoms: _108  and  _110
REMARK   40  A    between atoms: _110  and  _111
REMARK   41  A    between atoms: _113  and  _115
REMARK   42  A    between atoms: _115  and  _116
REMARK   43  A    between atoms: _115  and  _118
REMARK   44  A    between atoms: _118  and  _119
REMARK   45  A    between atoms: _124  and  _125
REMARK   46  A    between atoms: _127  and  _129
REMARK   47  A    between atoms: _129  and  _130
REMARK   48  A    between atoms: _129  and  _132
REMARK   49  A    between atoms: _132  and  _133
REMARK   50  A    between atoms: _136  and  _138
REMARK   51  A    between atoms: _138  and  _139
REMARK   52  A    between atoms: _138  and  _141
REMARK   53  A    between atoms: _141  and  _142
REMARK   54  A    between atoms: _144  and  _146
REMARK   55  A    between atoms: _146  and  _147
REMARK   56  A    between atoms: _146  and  _149
REMARK   57  A    between atoms: _149  and  _150
REMARK   58  A    between atoms: _153  and  _155
REMARK   59  A    between atoms: _155  and  _156
REMARK   60  A    between atoms: _155  and  _158
REMARK   61  A    between atoms: _158  and  _159
REMARK   62  A    between atoms: _167  and  _170
REMARK   63  A    between atoms: _170  and  _171
REMARK   64  A    between atoms: _175  and  _176
REMARK   65  A    between atoms: _179  and  _181
REMARK   66  A    between atoms: _185  and  _186
REMARK   67  A    between atoms: _191  and  _193
REMARK   68  A    between atoms: _193  and  _194
REMARK   69  A    between atoms: _193  and  _196
REMARK   70  A    between atoms: _196  and  _197
REMARK   71  A    between atoms: _207  and  _209
REMARK   72  A    between atoms: _209  and  _210
REMARK   73  A    between atoms: _209  and  _212
REMARK   74  A    between atoms: _212  and  _213
REMARK   75  A    between atoms: _216  and  _218
REMARK   76  A    between atoms: _218  and  _219
REMARK   77  A    between atoms: _222  and  _224
REMARK   78  A    between atoms: _224  and  _225
REMARK   79  A    between atoms: _224  and  _227
REMARK   80  A    between atoms: _227  and  _228
REMARK   81  A    between atoms: _231  and  _233
REMARK   82  A    between atoms: _233  and  _234
REMARK   83  A    between atoms: _236  and  _238
REMARK   84  A    between atoms: _238  and  _239
REMARK   85  A    between atoms: _242  and  _244
REMARK   86  A    between atoms: _244  and  _245
REMARK   87  A    between atoms: _244  and  _247
REMARK   88  A    between atoms: _247  and  _248
REMARK   89  A    between atoms: _248  and  _249
REMARK   90  A    between atoms: _254  and  _256
REMARK   91  A    between atoms: _256  and  _257
REMARK   92  A    between atoms: _256  and  _259
REMARK   93  A    between atoms: _259  and  _260
REMARK   94  A    between atoms: _260  and  _261
REMARK   95  A    between atoms: _261  and  _262
REMARK   96  A    between atoms: _271  and  _273
REMARK   97  A    between atoms: _273  and  _274
REMARK   98  A    between atoms: _273  and  _276
REMARK   99  A    between atoms: _276  and  _277
REMARK  100  A    between atoms: _280  and  _282
REMARK  101  A    between atoms: _282  and  _283
REMARK  102  A    between atoms: _286  and  _288
REMARK  103  A    between atoms: _288  and  _289
REMARK                            x       y       z     vdW  Elec       q    Type
REMARK                         _______ _______ _______ _____ _____    ______ ____
ROOT
ATOM      1  C   GLN A   5      19.965  -8.574  34.463  0.00  0.00    +0.241 C 
ATOM      2  N   ARG A   6      20.965  -9.449  34.550  0.00  0.00    -0.297 N 
ATOM      3  H   ARG A   6      21.902  -9.108  34.847  0.00  0.00    +0.150 HD
ATOM      4  O   GLN A   5      18.819  -8.884  34.130  0.00  0.00    -0.273 OA
ENDROOT
BRANCH   2   5
ATOM      5  CA  ARG A   6      20.800 -10.866  34.246  0.00  0.00    +0.149 C 
BRANCH   5   6
ATOM      6  C   ARG A   6      19.589 -11.523  34.893  0.00  0.00    +0.241 C 
ATOM      7  O   ARG A   6      19.409 -11.473  36.110  0.00  0.00    -0.273 OA
ATOM      8  N   ASP A   7      18.756 -12.118  34.046  0.00  0.00    -0.297 N 
ATOM      9  H   ASP A   7      18.977 -12.078  33.031  0.00  0.00    +0.150 HD
BRANCH   8  10
ATOM     10  CA  ASP A   7      17.548 -12.825  34.460  0.00  0.00    +0.160 C 
BRANCH  10  11
ATOM     11  C   ASP A   7      16.399 -12.007  35.039  0.00  0.00    +0.241 C 
ATOM     12  O   ASP A   7      15.453 -12.578  35.578  0.00  0.00    -0.273 OA
ATOM     13  N   ALA A   8      16.499 -10.680  34.971  0.00  0.00    -0.297 N 
ATOM     14  H   ALA A   8      17.365 -10.254  34.585  0.00  0.00    +0.150 HD
BRANCH  13  15
ATOM     15  CA  ALA A   8      15.417  -9.812  35.428  0.00  0.00    +0.149 C 
ATOM     16  CB  ALA A   8      15.943  -8.421  35.760  0.00  0.00    +0.031 C 
BRANCH  15  17
ATOM     17  C   ALA A   8      14.568  -9.774  34.164  0.00  0.00    +0.241 C 
ATOM     18  N   ALA A   9      13.779 -10.825  33.973  0.00  0.00    -0.298 N 
ATOM     19  H   ALA A   9      13.733 -11.569  34.699  0.00  0.00    +0.150 HD
ATOM     20  O   ALA A   8      14.660  -8.842  33.361  0.00  0.00    -0.273 OA
BRANCH  18  21
ATOM     21  CA  ALA A   9      12.982 -10.952  32.770  0.00  0.00    +0.137 C 
ATOM     22  CB  ALA A   9      13.824 -11.622  31.686  0.00  0.00    +0.030 C 
BRANCH  21  23
ATOM     23  C   ALA A   9      11.691 -11.725  32.965  0.00  0.00    +0.227 C 
ATOM     24  O   ALA A   9      11.470 -12.368  33.994  0.00  0.00    -0.286 OA
ENDBRANCH  21  23
ENDBRANCH  18  21
ENDBRANCH  15  17
ENDBRANCH  13  15
ENDBRANCH  10  11
BRANCH  10  25
ATOM     25  CB  ASP A   7      17.893 -14.005  35.375  0.00  0.00    +0.143 C 
BRANCH  25  26
ATOM     26  CG  ASP A   7      18.649 -15.104  34.647  0.00  0.00    +0.367 C 
ATOM     27  OD2 ASP A   7      19.301 -15.924  35.324  0.00  0.00    -0.246 OA
ATOM     28  OD1 ASP A   7      18.595 -15.151  33.399  0.00  0.00    -0.246 OA
ENDBRANCH  25  26
ENDBRANCH  10  25
ENDBRANCH   8  10
ENDBRANCH   5   6
BRANCH   5  29
ATOM     29  CB  ARG A   6      22.065 -11.648  34.611  0.00  0.00    +0.033 C 
BRANCH  29  30
ATOM     30  CG  ARG A   6      22.037 -13.106  34.166  0.00  0.00    +0.045 C 
BRANCH  30  31
ATOM     31  CD  ARG A   6      23.278 -13.860  34.628  0.00  0.00    +0.174 C 
BRANCH  31  32
ATOM     32  NE  ARG A   6      23.360 -13.949  36.085  0.00  0.00    -0.265 N 
ATOM     33  CZ  ARG A   6      22.737 -14.866  36.821  0.00  0.00    +0.342 C 
ATOM     34  NH2 ARG A   6      22.879 -14.868  38.139  0.00  0.00    -0.292 N 
ATOM     35 HH21 ARG A   6      22.392 -15.585  38.713  0.00  0.00    +0.255 HD
ATOM     36 HH22 ARG A   6      23.478 -14.153  38.599  0.00  0.00    +0.255 HD
ATOM     37  NH1 ARG A   6      21.977 -15.788  36.243  0.00  0.00    -0.292 N 
ATOM     38 HH11 ARG A   6      21.493 -16.502  36.824  0.00  0.00    +0.255 HD
ATOM     39 HH12 ARG A   6      21.866 -15.797  35.209  0.00  0.00    +0.255 HD
ATOM     40  HE  ARG A   6      23.946 -13.247  36.581  0.00  0.00    +0.259 HD
ENDBRANCH  31  32
ENDBRANCH  30  31
ENDBRANCH  29  30
ENDBRANCH   5  29
ENDBRANCH   2   5
BRANCH   1  41
ATOM     41  CA  GLN A   5      20.316  -7.128  34.785  0.00  0.00    +0.149 C 
BRANCH  41  43
ATOM     42  C   ALA A   4      19.778  -5.229  33.377  0.00  0.00    +0.241 C 
ATOM     43  N   GLN A   5      19.359  -6.213  34.167  0.00  0.00    -0.297 N 
ATOM     44  H   GLN A   5      18.342  -6.332  34.347  0.00  0.00    +0.150 HD
ATOM     45  O   ALA A   4      20.973  -4.999  33.183  0.00  0.00    -0.273 OA
BRANCH  42  46
ATOM     46  CA  ALA A   4      18.713  -4.331  32.743  0.00  0.00    +0.149 C 
ATOM     47  CB  ALA A   4      18.888  -2.897  33.225  0.00  0.00    +0.031 C 
BRANCH  46  49
ATOM     48  C   GLY A   3      16.706  -5.654  32.178  0.00  0.00    +0.243 C 
ATOM     49  N   ALA A   4      17.328  -4.757  32.944  0.00  0.00    -0.297 N 
ATOM     50  H   ALA A   4      16.796  -4.335  33.732  0.00  0.00    +0.150 HD
ATOM     51  O   GLY A   3      17.256  -6.283  31.276  0.00  0.00    -0.273 OA
BRANCH  48  52
ATOM     52  CA  GLY A   3      15.262  -5.910  32.572  0.00  0.00    +0.176 C 
BRANCH  52  54
ATOM     53  C   THR A   2      13.883  -6.201  30.564  0.00  0.00    +0.243 C 
ATOM     54  N   GLY A   3      14.291  -6.628  31.758  0.00  0.00    -0.295 N 
ATOM     55  H   GLY A   3      13.897  -7.517  32.127  0.00  0.00    +0.150 HD
ATOM     56  O   THR A   2      14.352  -5.211  29.995  0.00  0.00    -0.273 OA
BRANCH  53  57
ATOM     57  CA  THR A   2      12.787  -7.031  29.890  0.00  0.00    +0.176 C 
BRANCH  57  60
ATOM     58  C   ALA A   1      11.111  -5.654  28.771  0.00  0.00    +0.238 C 
ATOM     59  O   ALA A   1      10.304  -5.745  29.698  0.00  0.00    -0.274 OA
ATOM     60  N   THR A   2      12.290  -6.272  28.750  0.00  0.00    -0.295 N 
ATOM     61  H   THR A   2      12.875  -6.211  27.892  0.00  0.00    +0.150 HD
BRANCH  58  62
ATOM     62  CA  ALA A   1      10.776  -4.840  27.539  0.00  0.00    +0.145 C 
ATOM     63  CB  ALA A   1      11.210  -3.398  27.757  0.00  0.00    +0.028 C 
BRANCH  62  64
ATOM     64  N   ALA A   1       9.362  -4.889  27.202  0.00  0.00    -0.238 NA
ATOM     65  H   ALA A   1       8.659  -5.070  27.947  0.00  0.00    +0.142 HD
ENDBRANCH  62  64
ENDBRANCH  58  62
ENDBRANCH  57  60
BRANCH  57  66
ATOM     66  CB  THR A   2      13.292  -8.436  29.504  0.00  0.00    +0.137 C 
ATOM     67  CG2 THR A   2      12.117  -9.320  29.107  0.00  0.00    +0.034 C 
BRANCH  66  68
ATOM     68  OG1 THR A   2      14.224  -8.345  28.419  0.00  0.00    -0.382 OA
ATOM     69  HG1 THR A   2      14.541  -9.252  28.181  0.00  0.00    +0.210 HD
ENDBRANCH  66  68
ENDBRANCH  57  66
ENDBRANCH  53  57
ENDBRANCH  52  54
ENDBRANCH  48  52
ENDBRANCH  46  49
ENDBRANCH  42  46
ENDBRANCH  41  43
BRANCH  41  70
ATOM     70  CB  GLN A   5      20.420  -6.907  36.299  0.00  0.00    +0.039 C 
BRANCH  70  71
ATOM     71  CG  GLN A   5      19.184  -7.250  37.103  0.00  0.00    +0.087 C 
BRANCH  71  72
ATOM     72  CD  GLN A   5      19.436  -7.183  38.600  0.00  0.00    +0.219 C 
ATOM     73  NE2 GLN A   5      19.056  -6.069  39.216  0.00  0.00    -0.329 N 
ATOM     74 HE21 GLN A   5      19.207  -5.964  40.240  0.00  0.00    +0.145 HD
ATOM     75 HE22 GLN A   5      18.608  -5.302  38.675  0.00  0.00    +0.145 HD
ATOM     76  OE1 GLN A   5      19.971  -8.121  39.194  0.00  0.00    -0.275 OA
ENDBRANCH  71  72
ENDBRANCH  70  71
ENDBRANCH  41  70
ENDBRANCH   1  41
TORSDOF 29
REMARK  Name = ../refined-set-2016/1ax0/1ax0_pocket.pdb
REMARK  103 active torsions:
REMARK  status: ('A' for Active; 'I' for Inactive)
REMARK    1  A    between atoms: _1  and  _3
REMARK    2  A    between atoms: _3  and  _4
REMARK    3  A    between atoms: _3  and  _6
REMARK    4  A    between atoms: _6  and  _7
REMARK    5  A    between atoms: _17  and  _19
REMARK    6  A    between atoms: _19  and  _20
REMARK    7  A    between atoms: _19  and  _22
REMARK    8  A    between atoms: _22  and  _23
REMARK    9  A    between atoms: _26  and  _28
REMARK   10  A    between atoms: _28  and  _29
REMARK   11  A    between atoms: _28  and  _31
REMARK   12  A    between atoms: _31  and  _32
REMARK   13  A    between atoms: _35  and  _36
REMARK   14  A    between atoms: _41  and  _43
REMARK   15  A    between atoms: _43  and  _44
REMARK   16  A    between atoms: _43  and  _46
REMARK   17  A    between atoms: _46  and  _47
REMARK   18  A    between atoms: _51  and  _52
REMARK   19  A    between atoms: _57  and  _59
REMARK   20  A    between atoms: _59  and  _60
REMARK   21  A    between atoms: _63  and  _65
REMARK   22  A    between atoms: _65  and  _66
REMARK   23  A    between atoms: _65  and  _68
REMARK   24  A    between atoms: _68  and  _69
REMARK   25  A    between atoms: _72  and  _74
REMARK   26  A    between atoms: _74  and  _75
REMARK   27  A    between atoms: _77  and  _79
REMARK   28  A    between atoms: _79  and  _80
REMARK   29  A    between atoms: _79  and  _82
REMARK   30  A    between atoms: _82  and  _83
REMARK   31  A    between atoms: _83  and  _84
REMARK   32  A    between atoms: _89  and  _91
REMARK   33  A    between atoms: _91  and  _92
REMARK   34  A    between atoms: _94  and  _96
REMARK   35  A    between atoms: _96  and  _97
REMARK   36  A    between atoms: _96  and  _99
REMARK   37  A    between atoms: _99  and  _100
REMARK   38  A    between atoms: _105  and  _106
REMARK   39  A    between atoms: _108  and  _110
REMARK   40  A    between atoms: _110  and  _111
REMARK   41  A    between atoms: _113  and  _115
REMARK   42  A    between atoms: _115  and  _116
REMARK   43  A    between atoms: _115  and  _118
REMARK   44  A    between atoms: _118  and  _119
REMARK   45  A    between atoms: _124  and  _125
REMARK   46  A    between atoms: _127  and  _129
REMARK   47  A    between atoms: _129  and  _130
REMARK   48  A    between atoms: _129  and  _132
REMARK   49  A    between atoms: _132  and  _133
REMARK   50  A    between atoms: _136  and  _138
REMARK   51  A    between atoms: _138  and  _139
REMARK   52  A    between atoms: _138  and  _141
REMARK   53  A    between atoms: _141  and  _142
REMARK   54  A    between atoms: _144  and  _146
REMARK   55  A    between atoms: _146  and  _147
REMARK   56  A    between atoms: _146  and  _149
REMARK   57  A    between atoms: _149  and  _150
REMARK   58  A    between atoms: _153  and  _155
REMARK   59  A    between atoms: _155  and  _156
REMARK   60  A    between atoms: _155  and  _158
REMARK   61  A    between atoms: _158  and  _159
REMARK   62  A    between atoms: _167  and  _170
REMARK   63  A    between atoms: _170  and  _171
REMARK   64  A    between atoms: _175  and  _176
REMARK   65  A    between atoms: _179  and  _181
REMARK   66  A    between atoms: _185  and  _186
REMARK   67  A    between atoms: _191  and  _193
REMARK   68  A    between atoms: _193  and  _194
REMARK   69  A    between atoms: _193  and  _196
REMARK   70  A    between atoms: _196  and  _197
REMARK   71  A    between atoms: _207  and  _209
REMARK   72  A    between atoms: _209  and  _210
REMARK   73  A    between atoms: _209  and  _212
REMARK   74  A    between atoms: _212  and  _213
REMARK   75  A    between atoms: _216  and  _218
REMARK   76  A    between atoms: _218  and  _219
REMARK   77  A    between atoms: _222  and  _224
REMARK   78  A    between atoms: _224  and  _225
REMARK   79  A    between atoms: _224  and  _227
REMARK   80  A    between atoms: _227  and  _228
REMARK   81  A    between atoms: _231  and  _233
REMARK   82  A    between atoms: _233  and  _234
REMARK   83  A    between atoms: _236  and  _238
REMARK   84  A    between atoms: _238  and  _239
REMARK   85  A    between atoms: _242  and  _244
REMARK   86  A    between atoms: _244  and  _245
REMARK   87  A    between atoms: _244  and  _247
REMARK   88  A    between atoms: _247  and  _248
REMARK   89  A    between atoms: _248  and  _249
REMARK   90  A    between atoms: _254  and  _256
REMARK   91  A    between atoms: _256  and  _257
REMARK   92  A    between atoms: _256  and  _259
REMARK   93  A    between atoms: _259  and  _260
REMARK   94  A    between atoms: _260  and  _261
REMARK   95  A    between atoms: _261  and  _262
REMARK   96  A    between atoms: _271  and  _273
REMARK   97  A    between atoms: _273  and  _274
REMARK   98  A    between atoms: _273  and  _276
REMARK   99  A    between atoms: _276  and  _277
REMARK  100  A    between atoms: _280  and  _282
REMARK  101  A    between atoms: _282  and  _283
REMARK  102  A    between atoms: _286  and  _288
REMARK  103  A    between atoms: _288  and  _289
REMARK                            x       y       z     vdW  Elec       q    Type
REMARK                         _______ _______ _______ _____ _____    ______ ____
ROOT
ATOM      1  O   HOH     1       8.237   2.036  34.240  0.00  0.00    +0.000 OA
ENDROOT
TORSDOF 0
REMARK  Name = ../refined-set-2016/1ax0/1ax0_pocket.pdb
REMARK  103 active torsions:
REMARK  status: ('A' for Active; 'I' for Inactive)
REMARK    1  A    between atoms: _1  and  _3
REMARK    2  A    between atoms: _3  and  _4
REMARK    3  A    between atoms: _3  and  _6
REMARK    4  A    between atoms: _6  and  _7
REMARK    5  A    between atoms: _17  and  _19
REMARK    6  A    between atoms: _19  and  _20
REMARK    7  A    between atoms: _19  and  _22
REMARK    8  A    between atoms: _22  and  _23
REMARK    9  A    between atoms: _26  and  _28
REMARK   10  A    between atoms: _28  and  _29
REMARK   11  A    between atoms: _28  and  _31
REMARK   12  A    between atoms: _31  and  _32
REMARK   13  A    between atoms: _35  and  _36
REMARK   14  A    between atoms: _41  and  _43
REMARK   15  A    between atoms: _43  and  _44
REMARK   16  A    between atoms: _43  and  _46
REMARK   17  A    between atoms: _46  and  _47
REMARK   18  A    between atoms: _51  and  _52
REMARK   19  A    between atoms: _57  and  _59
REMARK   20  A    between atoms: _59  and  _60
REMARK   21  A    between atoms: _63  and  _65
REMARK   22  A    between atoms: _65  and  _66
REMARK   23  A    between atoms: _65  and  _68
REMARK   24  A    between atoms: _68  and  _69
REMARK   25  A    between atoms: _72  and  _74
REMARK   26  A    between atoms: _74  and  _75
REMARK   27  A    between atoms: _77  and  _79
REMARK   28  A    between atoms: _79  and  _80
REMARK   29  A    between atoms: _79  and  _82
REMARK   30  A    between atoms: _82  and  _83
REMARK   31  A    between atoms: _83  and  _84
REMARK   32  A    between atoms: _89  and  _91
REMARK   33  A    between atoms: _91  and  _92
REMARK   34  A    between atoms: _94  and  _96
REMARK   35  A    between atoms: _96  and  _97
REMARK   36  A    between atoms: _96  and  _99
REMARK   37  A    between atoms: _99  and  _100
REMARK   38  A    between atoms: _105  and  _106
REMARK   39  A    between atoms: _108  and  _110
REMARK   40  A    between atoms: _110  and  _111
REMARK   41  A    between atoms: _113  and  _115
REMARK   42  A    between atoms: _115  and  _116
REMARK   43  A    between atoms: _115  and  _118
REMARK   44  A    between atoms: _118  and  _119
REMARK   45  A    between atoms: _124  and  _125
REMARK   46  A    between atoms: _127  and  _129
REMARK   47  A    between atoms: _129  and  _130
REMARK   48  A    between atoms: _129  and  _132
REMARK   49  A    between atoms: _132  and  _133
REMARK   50  A    between atoms: _136  and  _138
REMARK   51  A    between atoms: _138  and  _139
REMARK   52  A    between atoms: _138  and  _141
REMARK   53  A    between atoms: _141  and  _142
REMARK   54  A    between atoms: _144  and  _146
REMARK   55  A    between atoms: _146  and  _147
REMARK   56  A    between atoms: _146  and  _149
REMARK   57  A    between atoms: _149  and  _150
REMARK   58  A    between atoms: _153  and  _155
REMARK   59  A    between atoms: _155  and  _156
REMARK   60  A    between atoms: _155  and  _158
REMARK   61  A    between atoms: _158  and  _159
REMARK   62  A    between atoms: _167  and  _170
REMARK   63  A    between atoms: _170  and  _171
REMARK   64  A    between atoms: _175  and  _176
REMARK   65  A    between atoms: _179  and  _181
REMARK   66  A    between atoms: _185  and  _186
REMARK   67  A    between atoms: _191  and  _193
REMARK   68  A    between atoms: _193  and  _194
REMARK   69  A    between atoms: _193  and  _196
REMARK   70  A    between atoms: _196  and  _197
REMARK   71  A    between atoms: _207  and  _209
REMARK   72  A    between atoms: _209  and  _210
REMARK   73  A    between atoms: _209  and  _212
REMARK   74  A    between atoms: _212  and  _213
REMARK   75  A    between atoms: _216  and  _218
REMARK   76  A    between atoms: _218  and  _219
REMARK   77  A    between atoms: _222  and  _224
REMARK   78  A    between atoms: _224  and  _225
REMARK   79  A    between atoms: _224  and  _227
REMARK   80  A    between atoms: _227  and  _228
REMARK   81  A    between atoms: _231  and  _233
REMARK   82  A    between atoms: _233  and  _234
REMARK   83  A    between atoms: _236  and  _238
REMARK   84  A    between atoms: _238  and  _239
REMARK   85  A    between atoms: _242  and  _244
REMARK   86  A    between atoms: _244  and  _245
REMARK   87  A    between atoms: _244  and  _247
REMARK   88  A    between atoms: _247  and  _248
REMARK   89  A    between atoms: _248  and  _249
REMARK   90  A    between atoms: _254  and  _256
REMARK   91  A    between atoms: _256  and  _257
REMARK   92  A    between atoms: _256  and  _259
REMARK   93  A    between atoms: _259  and  _260
REMARK   94  A    between atoms: _260  and  _261
REMARK   95  A    between atoms: _261  and  _262
REMARK   96  A    between atoms: _271  and  _273
REMARK   97  A    between atoms: _273  and  _274
REMARK   98  A    between atoms: _273  and  _276
REMARK   99  A    between atoms: _276  and  _277
REMARK  100  A    between atoms: _280  and  _282
REMARK  101  A    between atoms: _282  and  _283
REMARK  102  A    between atoms: _286  and  _288
REMARK  103  A    between atoms: _288  and  _289
REMARK                            x       y       z     vdW  Elec       q    Type
REMARK                         _______ _______ _______ _____ _____    ______ ____
ROOT
ATOM      1  O   HOH     1       9.279  -1.284  34.430  0.00  0.00    +0.000 OA
ENDROOT
TORSDOF 0
REMARK  Name = ../refined-set-2016/1ax0/1ax0_pocket.pdb
REMARK  103 active torsions:
REMARK  status: ('A' for Active; 'I' for Inactive)
REMARK    1  A    between atoms: _1  and  _3
REMARK    2  A    between atoms: _3  and  _4
REMARK    3  A    between atoms: _3  and  _6
REMARK    4  A    between atoms: _6  and  _7
REMARK    5  A    between atoms: _17  and  _19
REMARK    6  A    between atoms: _19  and  _20
REMARK    7  A    between atoms: _19  and  _22
REMARK    8  A    between atoms: _22  and  _23
REMARK    9  A    between atoms: _26  and  _28
REMARK   10  A    between atoms: _28  and  _29
REMARK   11  A    between atoms: _28  and  _31
REMARK   12  A    between atoms: _31  and  _32
REMARK   13  A    between atoms: _35  and  _36
REMARK   14  A    between atoms: _41  and  _43
REMARK   15  A    between atoms: _43  and  _44
REMARK   16  A    between atoms: _43  and  _46
REMARK   17  A    between atoms: _46  and  _47
REMARK   18  A    between atoms: _51  and  _52
REMARK   19  A    between atoms: _57  and  _59
REMARK   20  A    between atoms: _59  and  _60
REMARK   21  A    between atoms: _63  and  _65
REMARK   22  A    between atoms: _65  and  _66
REMARK   23  A    between atoms: _65  and  _68
REMARK   24  A    between atoms: _68  and  _69
REMARK   25  A    between atoms: _72  and  _74
REMARK   26  A    between atoms: _74  and  _75
REMARK   27  A    between atoms: _77  and  _79
REMARK   28  A    between atoms: _79  and  _80
REMARK   29  A    between atoms: _79  and  _82
REMARK   30  A    between atoms: _82  and  _83
REMARK   31  A    between atoms: _83  and  _84
REMARK   32  A    between atoms: _89  and  _91
REMARK   33  A    between atoms: _91  and  _92
REMARK   34  A    between atoms: _94  and  _96
REMARK   35  A    between atoms: _96  and  _97
REMARK   36  A    between atoms: _96  and  _99
REMARK   37  A    between atoms: _99  and  _100
REMARK   38  A    between atoms: _105  and  _106
REMARK   39  A    between atoms: _108  and  _110
REMARK   40  A    between atoms: _110  and  _111
REMARK   41  A    between atoms: _113  and  _115
REMARK   42  A    between atoms: _115  and  _116
REMARK   43  A    between atoms: _115  and  _118
REMARK   44  A    between atoms: _118  and  _119
REMARK   45  A    between atoms: _124  and  _125
REMARK   46  A    between atoms: _127  and  _129
REMARK   47  A    between atoms: _129  and  _130
REMARK   48  A    between atoms: _129  and  _132
REMARK   49  A    between atoms: _132  and  _133
REMARK   50  A    between atoms: _136  and  _138
REMARK   51  A    between atoms: _138  and  _139
REMARK   52  A    between atoms: _138  and  _141
REMARK   53  A    between atoms: _141  and  _142
REMARK   54  A    between atoms: _144  and  _146
REMARK   55  A    between atoms: _146  and  _147
REMARK   56  A    between atoms: _146  and  _149
REMARK   57  A    between atoms: _149  and  _150
REMARK   58  A    between atoms: _153  and  _155
REMARK   59  A    between atoms: _155  and  _156
REMARK   60  A    between atoms: _155  and  _158
REMARK   61  A    between atoms: _158  and  _159
REMARK   62  A    between atoms: _167  and  _170
REMARK   63  A    between atoms: _170  and  _171
REMARK   64  A    between atoms: _175  and  _176
REMARK   65  A    between atoms: _179  and  _181
REMARK   66  A    between atoms: _185  and  _186
REMARK   67  A    between atoms: _191  and  _193
REMARK   68  A    between atoms: _193  and  _194
REMARK   69  A    between atoms: _193  and  _196
REMARK   70  A    between atoms: _196  and  _197
REMARK   71  A    between atoms: _207  and  _209
REMARK   72  A    between atoms: _209  and  _210
REMARK   73  A    between atoms: _209  and  _212
REMARK   74  A    between atoms: _212  and  _213
REMARK   75  A    between atoms: _216  and  _218
REMARK   76  A    between atoms: _218  and  _219
REMARK   77  A    between atoms: _222  and  _224
REMARK   78  A    between atoms: _224  and  _225
REMARK   79  A    between atoms: _224  and  _227
REMARK   80  A    between atoms: _227  and  _228
REMARK   81  A    between atoms: _231  and  _233
REMARK   82  A    between atoms: _233  and  _234
REMARK   83  A    between atoms: _236  and  _238
REMARK   84  A    between atoms: _238  and  _239
REMARK   85  A    between atoms: _242  and  _244
REMARK   86  A    between atoms: _244  and  _245
REMARK   87  A    between atoms: _244  and  _247
REMARK   88  A    between atoms: _247  and  _248
REMARK   89  A    between atoms: _248  and  _249
REMARK   90  A    between atoms: _254  and  _256
REMARK   91  A    between atoms: _256  and  _257
REMARK   92  A    between atoms: _256  and  _259
REMARK   93  A    between atoms: _259  and  _260
REMARK   94  A    between atoms: _260  and  _261
REMARK   95  A    between atoms: _261  and  _262
REMARK   96  A    between atoms: _271  and  _273
REMARK   97  A    between atoms: _273  and  _274
REMARK   98  A    between atoms: _273  and  _276
REMARK   99  A    between atoms: _276  and  _277
REMARK  100  A    between atoms: _280  and  _282
REMARK  101  A    between atoms: _282  and  _283
REMARK  102  A    between atoms: _286  and  _288
REMARK  103  A    between atoms: _288  and  _289
REMARK                            x       y       z     vdW  Elec       q    Type
REMARK                         _______ _______ _______ _____ _____    ______ ____
ROOT
ATOM      1  O   HOH     1      14.858  -3.639  27.510  0.00  0.00    +0.000 OA
ENDROOT
TORSDOF 0
REMARK  Name = ../refined-set-2016/1ax0/1ax0_pocket.pdb
REMARK  103 active torsions:
REMARK  status: ('A' for Active; 'I' for Inactive)
REMARK    1  A    between atoms: _1  and  _3
REMARK    2  A    between atoms: _3  and  _4
REMARK    3  A    between atoms: _3  and  _6
REMARK    4  A    between atoms: _6  and  _7
REMARK    5  A    between atoms: _17  and  _19
REMARK    6  A    between atoms: _19  and  _20
REMARK    7  A    between atoms: _19  and  _22
REMARK    8  A    between atoms: _22  and  _23
REMARK    9  A    between atoms: _26  and  _28
REMARK   10  A    between atoms: _28  and  _29
REMARK   11  A    between atoms: _28  and  _31
REMARK   12  A    between atoms: _31  and  _32
REMARK   13  A    between atoms: _35  and  _36
REMARK   14  A    between atoms: _41  and  _43
REMARK   15  A    between atoms: _43  and  _44
REMARK   16  A    between atoms: _43  and  _46
REMARK   17  A    between atoms: _46  and  _47
REMARK   18  A    between atoms: _51  and  _52
REMARK   19  A    between atoms: _57  and  _59
REMARK   20  A    between atoms: _59  and  _60
REMARK   21  A    between atoms: _63  and  _65
REMARK   22  A    between atoms: _65  and  _66
REMARK   23  A    between atoms: _65  and  _68
REMARK   24  A    between atoms: _68  and  _69
REMARK   25  A    between atoms: _72  and  _74
REMARK   26  A    between atoms: _74  and  _75
REMARK   27  A    between atoms: _77  and  _79
REMARK   28  A    between atoms: _79  and  _80
REMARK   29  A    between atoms: _79  and  _82
REMARK   30  A    between atoms: _82  and  _83
REMARK   31  A    between atoms: _83  and  _84
REMARK   32  A    between atoms: _89  and  _91
REMARK   33  A    between atoms: _91  and  _92
REMARK   34  A    between atoms: _94  and  _96
REMARK   35  A    between atoms: _96  and  _97
REMARK   36  A    between atoms: _96  and  _99
REMARK   37  A    between atoms: _99  and  _100
REMARK   38  A    between atoms: _105  and  _106
REMARK   39  A    between atoms: _108  and  _110
REMARK   40  A    between atoms: _110  and  _111
REMARK   41  A    between atoms: _113  and  _115
REMARK   42  A    between atoms: _115  and  _116
REMARK   43  A    between atoms: _115  and  _118
REMARK   44  A    between atoms: _118  and  _119
REMARK   45  A    between atoms: _124  and  _125
REMARK   46  A    between atoms: _127  and  _129
REMARK   47  A    between atoms: _129  and  _130
REMARK   48  A    between atoms: _129  and  _132
REMARK   49  A    between atoms: _132  and  _133
REMARK   50  A    between atoms: _136  and  _138
REMARK   51  A    between atoms: _138  and  _139
REMARK   52  A    between atoms: _138  and  _141
REMARK   53  A    between atoms: _141  and  _142
REMARK   54  A    between atoms: _144  and  _146
REMARK   55  A    between atoms: _146  and  _147
REMARK   56  A    between atoms: _146  and  _149
REMARK   57  A    between atoms: _149  and  _150
REMARK   58  A    between atoms: _153  and  _155
REMARK   59  A    between atoms: _155  and  _156
REMARK   60  A    between atoms: _155  and  _158
REMARK   61  A    between atoms: _158  and  _159
REMARK   62  A    between atoms: _167  and  _170
REMARK   63  A    between atoms: _170  and  _171
REMARK   64  A    between atoms: _175  and  _176
REMARK   65  A    between atoms: _179  and  _181
REMARK   66  A    between atoms: _185  and  _186
REMARK   67  A    between atoms: _191  and  _193
REMARK   68  A    between atoms: _193  and  _194
REMARK   69  A    between atoms: _193  and  _196
REMARK   70  A    between atoms: _196  and  _197
REMARK   71  A    between atoms: _207  and  _209
REMARK   72  A    between atoms: _209  and  _210
REMARK   73  A    between atoms: _209  and  _212
REMARK   74  A    between atoms: _212  and  _213
REMARK   75  A    between atoms: _216  and  _218
REMARK   76  A    between atoms: _218  and  _219
REMARK   77  A    between atoms: _222  and  _224
REMARK   78  A    between atoms: _224  and  _225
REMARK   79  A    between atoms: _224  and  _227
REMARK   80  A    between atoms: _227  and  _228
REMARK   81  A    between atoms: _231  and  _233
REMARK   82  A    between atoms: _233  and  _234
REMARK   83  A    between atoms: _236  and  _238
REMARK   84  A    between atoms: _238  and  _239
REMARK   85  A    between atoms: _242  and  _244
REMARK   86  A    between atoms: _244  and  _245
REMARK   87  A    between atoms: _244  and  _247
REMARK   88  A    between atoms: _247  and  _248
REMARK   89  A    between atoms: _248  and  _249
REMARK   90  A    between atoms: _254  and  _256
REMARK   91  A    between atoms: _256  and  _257
REMARK   92  A    between atoms: _256  and  _259
REMARK   93  A    between atoms: _259  and  _260
REMARK   94  A    between atoms: _260  and  _261
REMARK   95  A    between atoms: _261  and  _262
REMARK   96  A    between atoms: _271  and  _273
REMARK   97  A    between atoms: _273  and  _274
REMARK   98  A    between atoms: _273  and  _276
REMARK   99  A    between atoms: _276  and  _277
REMARK  100  A    between atoms: _280  and  _282
REMARK  101  A    between atoms: _282  and  _283
REMARK  102  A    between atoms: _286  and  _288
REMARK  103  A    between atoms: _288  and  _289
REMARK                            x       y       z     vdW  Elec       q    Type
REMARK                         _______ _______ _______ _____ _____    ______ ____
ROOT
ATOM      1  O   HOH     1       9.486  -6.942  39.901  0.00  0.00    +0.000 OA
ENDROOT
TORSDOF 0
REMARK  Name = ../refined-set-2016/1ax0/1ax0_pocket.pdb
REMARK  103 active torsions:
REMARK  status: ('A' for Active; 'I' for Inactive)
REMARK    1  A    between atoms: _1  and  _3
REMARK    2  A    between atoms: _3  and  _4
REMARK    3  A    between atoms: _3  and  _6
REMARK    4  A    between atoms: _6  and  _7
REMARK    5  A    between atoms: _17  and  _19
REMARK    6  A    between atoms: _19  and  _20
REMARK    7  A    between atoms: _19  and  _22
REMARK    8  A    between atoms: _22  and  _23
REMARK    9  A    between atoms: _26  and  _28
REMARK   10  A    between atoms: _28  and  _29
REMARK   11  A    between atoms: _28  and  _31
REMARK   12  A    between atoms: _31  and  _32
REMARK   13  A    between atoms: _35  and  _36
REMARK   14  A    between atoms: _41  and  _43
REMARK   15  A    between atoms: _43  and  _44
REMARK   16  A    between atoms: _43  and  _46
REMARK   17  A    between atoms: _46  and  _47
REMARK   18  A    between atoms: _51  and  _52
REMARK   19  A    between atoms: _57  and  _59
REMARK   20  A    between atoms: _59  and  _60
REMARK   21  A    between atoms: _63  and  _65
REMARK   22  A    between atoms: _65  and  _66
REMARK   23  A    between atoms: _65  and  _68
REMARK   24  A    between atoms: _68  and  _69
REMARK   25  A    between atoms: _72  and  _74
REMARK   26  A    between atoms: _74  and  _75
REMARK   27  A    between atoms: _77  and  _79
REMARK   28  A    between atoms: _79  and  _80
REMARK   29  A    between atoms: _79  and  _82
REMARK   30  A    between atoms: _82  and  _83
REMARK   31  A    between atoms: _83  and  _84
REMARK   32  A    between atoms: _89  and  _91
REMARK   33  A    between atoms: _91  and  _92
REMARK   34  A    between atoms: _94  and  _96
REMARK   35  A    between atoms: _96  and  _97
REMARK   36  A    between atoms: _96  and  _99
REMARK   37  A    between atoms: _99  and  _100
REMARK   38  A    between atoms: _105  and  _106
REMARK   39  A    between atoms: _108  and  _110
REMARK   40  A    between atoms: _110  and  _111
REMARK   41  A    between atoms: _113  and  _115
REMARK   42  A    between atoms: _115  and  _116
REMARK   43  A    between atoms: _115  and  _118
REMARK   44  A    between atoms: _118  and  _119
REMARK   45  A    between atoms: _124  and  _125
REMARK   46  A    between atoms: _127  and  _129
REMARK   47  A    between atoms: _129  and  _130
REMARK   48  A    between atoms: _129  and  _132
REMARK   49  A    between atoms: _132  and  _133
REMARK   50  A    between atoms: _136  and  _138
REMARK   51  A    between atoms: _138  and  _139
REMARK   52  A    between atoms: _138  and  _141
REMARK   53  A    between atoms: _141  and  _142
REMARK   54  A    between atoms: _144  and  _146
REMARK   55  A    between atoms: _146  and  _147
REMARK   56  A    between atoms: _146  and  _149
REMARK   57  A    between atoms: _149  and  _150
REMARK   58  A    between atoms: _153  and  _155
REMARK   59  A    between atoms: _155  and  _156
REMARK   60  A    between atoms: _155  and  _158
REMARK   61  A    between atoms: _158  and  _159
REMARK   62  A    between atoms: _167  and  _170
REMARK   63  A    between atoms: _170  and  _171
REMARK   64  A    between atoms: _175  and  _176
REMARK   65  A    between atoms: _179  and  _181
REMARK   66  A    between atoms: _185  and  _186
REMARK   67  A    between atoms: _191  and  _193
REMARK   68  A    between atoms: _193  and  _194
REMARK   69  A    between atoms: _193  and  _196
REMARK   70  A    between atoms: _196  and  _197
REMARK   71  A    between atoms: _207  and  _209
REMARK   72  A    between atoms: _209  and  _210
REMARK   73  A    between atoms: _209  and  _212
REMARK   74  A    between atoms: _212  and  _213
REMARK   75  A    between atoms: _216  and  _218
REMARK   76  A    between atoms: _218  and  _219
REMARK   77  A    between atoms: _222  and  _224
REMARK   78  A    between atoms: _224  and  _225
REMARK   79  A    between atoms: _224  and  _227
REMARK   80  A    between atoms: _227  and  _228
REMARK   81  A    between atoms: _231  and  _233
REMARK   82  A    between atoms: _233  and  _234
REMARK   83  A    between atoms: _236  and  _238
REMARK   84  A    between atoms: _238  and  _239
REMARK   85  A    between atoms: _242  and  _244
REMARK   86  A    between atoms: _244  and  _245
REMARK   87  A    between atoms: _244  and  _247
REMARK   88  A    between atoms: _247  and  _248
REMARK   89  A    between atoms: _248  and  _249
REMARK   90  A    between atoms: _254  and  _256
REMARK   91  A    between atoms: _256  and  _257
REMARK   92  A    between atoms: _256  and  _259
REMARK   93  A    between atoms: _259  and  _260
REMARK   94  A    between atoms: _260  and  _261
REMARK   95  A    between atoms: _261  and  _262
REMARK   96  A    between atoms: _271  and  _273
REMARK   97  A    between atoms: _273  and  _274
REMARK   98  A    between atoms: _273  and  _276
REMARK   99  A    between atoms: _276  and  _277
REMARK  100  A    between atoms: _280  and  _282
REMARK  101  A    between atoms: _282  and  _283
REMARK  102  A    between atoms: _286  and  _288
REMARK  103  A    between atoms: _288  and  _289
REMARK                            x       y       z     vdW  Elec       q    Type
REMARK                         _______ _______ _______ _____ _____    ______ ____
ROOT
ATOM      1  O   HOH     1      15.454  -7.044  39.130  0.00  0.00    +0.000 OA
ENDROOT
TORSDOF 0
REMARK  Name = ../refined-set-2016/1ax0/1ax0_pocket.pdb
REMARK  103 active torsions:
REMARK  status: ('A' for Active; 'I' for Inactive)
REMARK    1  A    between atoms: _1  and  _3
REMARK    2  A    between atoms: _3  and  _4
REMARK    3  A    between atoms: _3  and  _6
REMARK    4  A    between atoms: _6  and  _7
REMARK    5  A    between atoms: _17  and  _19
REMARK    6  A    between atoms: _19  and  _20
REMARK    7  A    between atoms: _19  and  _22
REMARK    8  A    between atoms: _22  and  _23
REMARK    9  A    between atoms: _26  and  _28
REMARK   10  A    between atoms: _28  and  _29
REMARK   11  A    between atoms: _28  and  _31
REMARK   12  A    between atoms: _31  and  _32
REMARK   13  A    between atoms: _35  and  _36
REMARK   14  A    between atoms: _41  and  _43
REMARK   15  A    between atoms: _43  and  _44
REMARK   16  A    between atoms: _43  and  _46
REMARK   17  A    between atoms: _46  and  _47
REMARK   18  A    between atoms: _51  and  _52
REMARK   19  A    between atoms: _57  and  _59
REMARK   20  A    between atoms: _59  and  _60
REMARK   21  A    between atoms: _63  and  _65
REMARK   22  A    between atoms: _65  and  _66
REMARK   23  A    between atoms: _65  and  _68
REMARK   24  A    between atoms: _68  and  _69
REMARK   25  A    between atoms: _72  and  _74
REMARK   26  A    between atoms: _74  and  _75
REMARK   27  A    between atoms: _77  and  _79
REMARK   28  A    between atoms: _79  and  _80
REMARK   29  A    between atoms: _79  and  _82
REMARK   30  A    between atoms: _82  and  _83
REMARK   31  A    between atoms: _83  and  _84
REMARK   32  A    between atoms: _89  and  _91
REMARK   33  A    between atoms: _91  and  _92
REMARK   34  A    between atoms: _94  and  _96
REMARK   35  A    between atoms: _96  and  _97
REMARK   36  A    between atoms: _96  and  _99
REMARK   37  A    between atoms: _99  and  _100
REMARK   38  A    between atoms: _105  and  _106
REMARK   39  A    between atoms: _108  and  _110
REMARK   40  A    between atoms: _110  and  _111
REMARK   41  A    between atoms: _113  and  _115
REMARK   42  A    between atoms: _115  and  _116
REMARK   43  A    between atoms: _115  and  _118
REMARK   44  A    between atoms: _118  and  _119
REMARK   45  A    between atoms: _124  and  _125
REMARK   46  A    between atoms: _127  and  _129
REMARK   47  A    between atoms: _129  and  _130
REMARK   48  A    between atoms: _129  and  _132
REMARK   49  A    between atoms: _132  and  _133
REMARK   50  A    between atoms: _136  and  _138
REMARK   51  A    between atoms: _138  and  _139
REMARK   52  A    between atoms: _138  and  _141
REMARK   53  A    between atoms: _141  and  _142
REMARK   54  A    between atoms: _144  and  _146
REMARK   55  A    between atoms: _146  and  _147
REMARK   56  A    between atoms: _146  and  _149
REMARK   57  A    between atoms: _149  and  _150
REMARK   58  A    between atoms: _153  and  _155
REMARK   59  A    between atoms: _155  and  _156
REMARK   60  A    between atoms: _155  and  _158
REMARK   61  A    between atoms: _158  and  _159
REMARK   62  A    between atoms: _167  and  _170
REMARK   63  A    between atoms: _170  and  _171
REMARK   64  A    between atoms: _175  and  _176
REMARK   65  A    between atoms: _179  and  _181
REMARK   66  A    between atoms: _185  and  _186
REMARK   67  A    between atoms: _191  and  _193
REMARK   68  A    between atoms: _193  and  _194
REMARK   69  A    between atoms: _193  and  _196
REMARK   70  A    between atoms: _196  and  _197
REMARK   71  A    between atoms: _207  and  _209
REMARK   72  A    between atoms: _209  and  _210
REMARK   73  A    between atoms: _209  and  _212
REMARK   74  A    between atoms: _212  and  _213
REMARK   75  A    between atoms: _216  and  _218
REMARK   76  A    between atoms: _218  and  _219
REMARK   77  A    between atoms: _222  and  _224
REMARK   78  A    between atoms: _224  and  _225
REMARK   79  A    between atoms: _224  and  _227
REMARK   80  A    between atoms: _227  and  _228
REMARK   81  A    between atoms: _231  and  _233
REMARK   82  A    between atoms: _233  and  _234
REMARK   83  A    between atoms: _236  and  _238
REMARK   84  A    between atoms: _238  and  _239
REMARK   85  A    between atoms: _242  and  _244
REMARK   86  A    between atoms: _244  and  _245
REMARK   87  A    between atoms: _244  and  _247
REMARK   88  A    between atoms: _247  and  _248
REMARK   89  A    between atoms: _248  and  _249
REMARK   90  A    between atoms: _254  and  _256
REMARK   91  A    between atoms: _256  and  _257
REMARK   92  A    between atoms: _256  and  _259
REMARK   93  A    between atoms: _259  and  _260
REMARK   94  A    between atoms: _260  and  _261
REMARK   95  A    between atoms: _261  and  _262
REMARK   96  A    between atoms: _271  and  _273
REMARK   97  A    between atoms: _273  and  _274
REMARK   98  A    between atoms: _273  and  _276
REMARK   99  A    between atoms: _276  and  _277
REMARK  100  A    between atoms: _280  and  _282
REMARK  101  A    between atoms: _282  and  _283
REMARK  102  A    between atoms: _286  and  _288
REMARK  103  A    between atoms: _288  and  _289
REMARK                            x       y       z     vdW  Elec       q    Type
REMARK                         _______ _______ _______ _____ _____    ______ ____
ROOT
ATOM      1  O   HOH     1       9.747  -4.092  41.563  0.00  0.00    +0.000 OA
ENDROOT
TORSDOF 0
REMARK  Name = ../refined-set-2016/1ax0/1ax0_pocket.pdb
REMARK  103 active torsions:
REMARK  status: ('A' for Active; 'I' for Inactive)
REMARK    1  A    between atoms: _1  and  _3
REMARK    2  A    between atoms: _3  and  _4
REMARK    3  A    between atoms: _3  and  _6
REMARK    4  A    between atoms: _6  and  _7
REMARK    5  A    between atoms: _17  and  _19
REMARK    6  A    between atoms: _19  and  _20
REMARK    7  A    between atoms: _19  and  _22
REMARK    8  A    between atoms: _22  and  _23
REMARK    9  A    between atoms: _26  and  _28
REMARK   10  A    between atoms: _28  and  _29
REMARK   11  A    between atoms: _28  and  _31
REMARK   12  A    between atoms: _31  and  _32
REMARK   13  A    between atoms: _35  and  _36
REMARK   14  A    between atoms: _41  and  _43
REMARK   15  A    between atoms: _43  and  _44
REMARK   16  A    between atoms: _43  and  _46
REMARK   17  A    between atoms: _46  and  _47
REMARK   18  A    between atoms: _51  and  _52
REMARK   19  A    between atoms: _57  and  _59
REMARK   20  A    between atoms: _59  and  _60
REMARK   21  A    between atoms: _63  and  _65
REMARK   22  A    between atoms: _65  and  _66
REMARK   23  A    between atoms: _65  and  _68
REMARK   24  A    between atoms: _68  and  _69
REMARK   25  A    between atoms: _72  and  _74
REMARK   26  A    between atoms: _74  and  _75
REMARK   27  A    between atoms: _77  and  _79
REMARK   28  A    between atoms: _79  and  _80
REMARK   29  A    between atoms: _79  and  _82
REMARK   30  A    between atoms: _82  and  _83
REMARK   31  A    between atoms: _83  and  _84
REMARK   32  A    between atoms: _89  and  _91
REMARK   33  A    between atoms: _91  and  _92
REMARK   34  A    between atoms: _94  and  _96
REMARK   35  A    between atoms: _96  and  _97
REMARK   36  A    between atoms: _96  and  _99
REMARK   37  A    between atoms: _99  and  _100
REMARK   38  A    between atoms: _105  and  _106
REMARK   39  A    between atoms: _108  and  _110
REMARK   40  A    between atoms: _110  and  _111
REMARK   41  A    between atoms: _113  and  _115
REMARK   42  A    between atoms: _115  and  _116
REMARK   43  A    between atoms: _115  and  _118
REMARK   44  A    between atoms: _118  and  _119
REMARK   45  A    between atoms: _124  and  _125
REMARK   46  A    between atoms: _127  and  _129
REMARK   47  A    between atoms: _129  and  _130
REMARK   48  A    between atoms: _129  and  _132
REMARK   49  A    between atoms: _132  and  _133
REMARK   50  A    between atoms: _136  and  _138
REMARK   51  A    between atoms: _138  and  _139
REMARK   52  A    between atoms: _138  and  _141
REMARK   53  A    between atoms: _141  and  _142
REMARK   54  A    between atoms: _144  and  _146
REMARK   55  A    between atoms: _146  and  _147
REMARK   56  A    between atoms: _146  and  _149
REMARK   57  A    between atoms: _149  and  _150
REMARK   58  A    between atoms: _153  and  _155
REMARK   59  A    between atoms: _155  and  _156
REMARK   60  A    between atoms: _155  and  _158
REMARK   61  A    between atoms: _158  and  _159
REMARK   62  A    between atoms: _167  and  _170
REMARK   63  A    between atoms: _170  and  _171
REMARK   64  A    between atoms: _175  and  _176
REMARK   65  A    between atoms: _179  and  _181
REMARK   66  A    between atoms: _185  and  _186
REMARK   67  A    between atoms: _191  and  _193
REMARK   68  A    between atoms: _193  and  _194
REMARK   69  A    between atoms: _193  and  _196
REMARK   70  A    between atoms: _196  and  _197
REMARK   71  A    between atoms: _207  and  _209
REMARK   72  A    between atoms: _209  and  _210
REMARK   73  A    between atoms: _209  and  _212
REMARK   74  A    between atoms: _212  and  _213
REMARK   75  A    between atoms: _216  and  _218
REMARK   76  A    between atoms: _218  and  _219
REMARK   77  A    between atoms: _222  and  _224
REMARK   78  A    between atoms: _224  and  _225
REMARK   79  A    between atoms: _224  and  _227
REMARK   80  A    between atoms: _227  and  _228
REMARK   81  A    between atoms: _231  and  _233
REMARK   82  A    between atoms: _233  and  _234
REMARK   83  A    between atoms: _236  and  _238
REMARK   84  A    between atoms: _238  and  _239
REMARK   85  A    between atoms: _242  and  _244
REMARK   86  A    between atoms: _244  and  _245
REMARK   87  A    between atoms: _244  and  _247
REMARK   88  A    between atoms: _247  and  _248
REMARK   89  A    between atoms: _248  and  _249
REMARK   90  A    between atoms: _254  and  _256
REMARK   91  A    between atoms: _256  and  _257
REMARK   92  A    between atoms: _256  and  _259
REMARK   93  A    between atoms: _259  and  _260
REMARK   94  A    between atoms: _260  and  _261
REMARK   95  A    between atoms: _261  and  _262
REMARK   96  A    between atoms: _271  and  _273
REMARK   97  A    between atoms: _273  and  _274
REMARK   98  A    between atoms: _273  and  _276
REMARK   99  A    between atoms: _276  and  _277
REMARK  100  A    between atoms: _280  and  _282
REMARK  101  A    between atoms: _282  and  _283
REMARK  102  A    between atoms: _286  and  _288
REMARK  103  A    between atoms: _288  and  _289
REMARK                            x       y       z     vdW  Elec       q    Type
REMARK                         _______ _______ _______ _____ _____    ______ ____
ROOT
ATOM      1  O   HOH     1      16.036  -7.682  42.137  0.00  0.00    +0.000 OA
ENDROOT
TORSDOF 0
REMARK  Name = ../refined-set-2016/1ax0/1ax0_pocket.pdb
REMARK  103 active torsions:
REMARK  status: ('A' for Active; 'I' for Inactive)
REMARK    1  A    between atoms: _1  and  _3
REMARK    2  A    between atoms: _3  and  _4
REMARK    3  A    between atoms: _3  and  _6
REMARK    4  A    between atoms: _6  and  _7
REMARK    5  A    between atoms: _17  and  _19
REMARK    6  A    between atoms: _19  and  _20
REMARK    7  A    between atoms: _19  and  _22
REMARK    8  A    between atoms: _22  and  _23
REMARK    9  A    between atoms: _26  and  _28
REMARK   10  A    between atoms: _28  and  _29
REMARK   11  A    between atoms: _28  and  _31
REMARK   12  A    between atoms: _31  and  _32
REMARK   13  A    between atoms: _35  and  _36
REMARK   14  A    between atoms: _41  and  _43
REMARK   15  A    between atoms: _43  and  _44
REMARK   16  A    between atoms: _43  and  _46
REMARK   17  A    between atoms: _46  and  _47
REMARK   18  A    between atoms: _51  and  _52
REMARK   19  A    between atoms: _57  and  _59
REMARK   20  A    between atoms: _59  and  _60
REMARK   21  A    between atoms: _63  and  _65
REMARK   22  A    between atoms: _65  and  _66
REMARK   23  A    between atoms: _65  and  _68
REMARK   24  A    between atoms: _68  and  _69
REMARK   25  A    between atoms: _72  and  _74
REMARK   26  A    between atoms: _74  and  _75
REMARK   27  A    between atoms: _77  and  _79
REMARK   28  A    between atoms: _79  and  _80
REMARK   29  A    between atoms: _79  and  _82
REMARK   30  A    between atoms: _82  and  _83
REMARK   31  A    between atoms: _83  and  _84
REMARK   32  A    between atoms: _89  and  _91
REMARK   33  A    between atoms: _91  and  _92
REMARK   34  A    between atoms: _94  and  _96
REMARK   35  A    between atoms: _96  and  _97
REMARK   36  A    between atoms: _96  and  _99
REMARK   37  A    between atoms: _99  and  _100
REMARK   38  A    between atoms: _105  and  _106
REMARK   39  A    between atoms: _108  and  _110
REMARK   40  A    between atoms: _110  and  _111
REMARK   41  A    between atoms: _113  and  _115
REMARK   42  A    between atoms: _115  and  _116
REMARK   43  A    between atoms: _115  and  _118
REMARK   44  A    between atoms: _118  and  _119
REMARK   45  A    between atoms: _124  and  _125
REMARK   46  A    between atoms: _127  and  _129
REMARK   47  A    between atoms: _129  and  _130
REMARK   48  A    between atoms: _129  and  _132
REMARK   49  A    between atoms: _132  and  _133
REMARK   50  A    between atoms: _136  and  _138
REMARK   51  A    between atoms: _138  and  _139
REMARK   52  A    between atoms: _138  and  _141
REMARK   53  A    between atoms: _141  and  _142
REMARK   54  A    between atoms: _144  and  _146
REMARK   55  A    between atoms: _146  and  _147
REMARK   56  A    between atoms: _146  and  _149
REMARK   57  A    between atoms: _149  and  _150
REMARK   58  A    between atoms: _153  and  _155
REMARK   59  A    between atoms: _155  and  _156
REMARK   60  A    between atoms: _155  and  _158
REMARK   61  A    between atoms: _158  and  _159
REMARK   62  A    between atoms: _167  and  _170
REMARK   63  A    between atoms: _170  and  _171
REMARK   64  A    between atoms: _175  and  _176
REMARK   65  A    between atoms: _179  and  _181
REMARK   66  A    between atoms: _185  and  _186
REMARK   67  A    between atoms: _191  and  _193
REMARK   68  A    between atoms: _193  and  _194
REMARK   69  A    between atoms: _193  and  _196
REMARK   70  A    between atoms: _196  and  _197
REMARK   71  A    between atoms: _207  and  _209
REMARK   72  A    between atoms: _209  and  _210
REMARK   73  A    between atoms: _209  and  _212
REMARK   74  A    between atoms: _212  and  _213
REMARK   75  A    between atoms: _216  and  _218
REMARK   76  A    between atoms: _218  and  _219
REMARK   77  A    between atoms: _222  and  _224
REMARK   78  A    between atoms: _224  and  _225
REMARK   79  A    between atoms: _224  and  _227
REMARK   80  A    between atoms: _227  and  _228
REMARK   81  A    between atoms: _231  and  _233
REMARK   82  A    between atoms: _233  and  _234
REMARK   83  A    between atoms: _236  and  _238
REMARK   84  A    between atoms: _238  and  _239
REMARK   85  A    between atoms: _242  and  _244
REMARK   86  A    between atoms: _244  and  _245
REMARK   87  A    between atoms: _244  and  _247
REMARK   88  A    between atoms: _247  and  _248
REMARK   89  A    between atoms: _248  and  _249
REMARK   90  A    between atoms: _254  and  _256
REMARK   91  A    between atoms: _256  and  _257
REMARK   92  A    between atoms: _256  and  _259
REMARK   93  A    between atoms: _259  and  _260
REMARK   94  A    between atoms: _260  and  _261
REMARK   95  A    between atoms: _261  and  _262
REMARK   96  A    between atoms: _271  and  _273
REMARK   97  A    between atoms: _273  and  _274
REMARK   98  A    between atoms: _273  and  _276
REMARK   99  A    between atoms: _276  and  _277
REMARK  100  A    between atoms: _280  and  _282
REMARK  101  A    between atoms: _282  and  _283
REMARK  102  A    between atoms: _286  and  _288
REMARK  103  A    between atoms: _288  and  _289
REMARK                            x       y       z     vdW  Elec       q    Type
REMARK                         _______ _______ _______ _____ _____    ______ ____
ROOT
ATOM      1  O   HOH     1      11.978  -2.495  42.678  0.00  0.00    +0.000 OA
ENDROOT
TORSDOF 0
REMARK  Name = ../refined-set-2016/1ax0/1ax0_pocket.pdb
REMARK  103 active torsions:
REMARK  status: ('A' for Active; 'I' for Inactive)
REMARK    1  A    between atoms: _1  and  _3
REMARK    2  A    between atoms: _3  and  _4
REMARK    3  A    between atoms: _3  and  _6
REMARK    4  A    between atoms: _6  and  _7
REMARK    5  A    between atoms: _17  and  _19
REMARK    6  A    between atoms: _19  and  _20
REMARK    7  A    between atoms: _19  and  _22
REMARK    8  A    between atoms: _22  and  _23
REMARK    9  A    between atoms: _26  and  _28
REMARK   10  A    between atoms: _28  and  _29
REMARK   11  A    between atoms: _28  and  _31
REMARK   12  A    between atoms: _31  and  _32
REMARK   13  A    between atoms: _35  and  _36
REMARK   14  A    between atoms: _41  and  _43
REMARK   15  A    between atoms: _43  and  _44
REMARK   16  A    between atoms: _43  and  _46
REMARK   17  A    between atoms: _46  and  _47
REMARK   18  A    between atoms: _51  and  _52
REMARK   19  A    between atoms: _57  and  _59
REMARK   20  A    between atoms: _59  and  _60
REMARK   21  A    between atoms: _63  and  _65
REMARK   22  A    between atoms: _65  and  _66
REMARK   23  A    between atoms: _65  and  _68
REMARK   24  A    between atoms: _68  and  _69
REMARK   25  A    between atoms: _72  and  _74
REMARK   26  A    between atoms: _74  and  _75
REMARK   27  A    between atoms: _77  and  _79
REMARK   28  A    between atoms: _79  and  _80
REMARK   29  A    between atoms: _79  and  _82
REMARK   30  A    between atoms: _82  and  _83
REMARK   31  A    between atoms: _83  and  _84
REMARK   32  A    between atoms: _89  and  _91
REMARK   33  A    between atoms: _91  and  _92
REMARK   34  A    between atoms: _94  and  _96
REMARK   35  A    between atoms: _96  and  _97
REMARK   36  A    between atoms: _96  and  _99
REMARK   37  A    between atoms: _99  and  _100
REMARK   38  A    between atoms: _105  and  _106
REMARK   39  A    between atoms: _108  and  _110
REMARK   40  A    between atoms: _110  and  _111
REMARK   41  A    between atoms: _113  and  _115
REMARK   42  A    between atoms: _115  and  _116
REMARK   43  A    between atoms: _115  and  _118
REMARK   44  A    between atoms: _118  and  _119
REMARK   45  A    between atoms: _124  and  _125
REMARK   46  A    between atoms: _127  and  _129
REMARK   47  A    between atoms: _129  and  _130
REMARK   48  A    between atoms: _129  and  _132
REMARK   49  A    between atoms: _132  and  _133
REMARK   50  A    between atoms: _136  and  _138
REMARK   51  A    between atoms: _138  and  _139
REMARK   52  A    between atoms: _138  and  _141
REMARK   53  A    between atoms: _141  and  _142
REMARK   54  A    between atoms: _144  and  _146
REMARK   55  A    between atoms: _146  and  _147
REMARK   56  A    between atoms: _146  and  _149
REMARK   57  A    between atoms: _149  and  _150
REMARK   58  A    between atoms: _153  and  _155
REMARK   59  A    between atoms: _155  and  _156
REMARK   60  A    between atoms: _155  and  _158
REMARK   61  A    between atoms: _158  and  _159
REMARK   62  A    between atoms: _167  and  _170
REMARK   63  A    between atoms: _170  and  _171
REMARK   64  A    between atoms: _175  and  _176
REMARK   65  A    between atoms: _179  and  _181
REMARK   66  A    between atoms: _185  and  _186
REMARK   67  A    between atoms: _191  and  _193
REMARK   68  A    between atoms: _193  and  _194
REMARK   69  A    between atoms: _193  and  _196
REMARK   70  A    between atoms: _196  and  _197
REMARK   71  A    between atoms: _207  and  _209
REMARK   72  A    between atoms: _209  and  _210
REMARK   73  A    between atoms: _209  and  _212
REMARK   74  A    between atoms: _212  and  _213
REMARK   75  A    between atoms: _216  and  _218
REMARK   76  A    between atoms: _218  and  _219
REMARK   77  A    between atoms: _222  and  _224
REMARK   78  A    between atoms: _224  and  _225
REMARK   79  A    between atoms: _224  and  _227
REMARK   80  A    between atoms: _227  and  _228
REMARK   81  A    between atoms: _231  and  _233
REMARK   82  A    between atoms: _233  and  _234
REMARK   83  A    between atoms: _236  and  _238
REMARK   84  A    between atoms: _238  and  _239
REMARK   85  A    between atoms: _242  and  _244
REMARK   86  A    between atoms: _244  and  _245
REMARK   87  A    between atoms: _244  and  _247
REMARK   88  A    between atoms: _247  and  _248
REMARK   89  A    between atoms: _248  and  _249
REMARK   90  A    between atoms: _254  and  _256
REMARK   91  A    between atoms: _256  and  _257
REMARK   92  A    between atoms: _256  and  _259
REMARK   93  A    between atoms: _259  and  _260
REMARK   94  A    between atoms: _260  and  _261
REMARK   95  A    between atoms: _261  and  _262
REMARK   96  A    between atoms: _271  and  _273
REMARK   97  A    between atoms: _273  and  _274
REMARK   98  A    between atoms: _273  and  _276
REMARK   99  A    between atoms: _276  and  _277
REMARK  100  A    between atoms: _280  and  _282
REMARK  101  A    between atoms: _282  and  _283
REMARK  102  A    between atoms: _286  and  _288
REMARK  103  A    between atoms: _288  and  _289
REMARK                            x       y       z     vdW  Elec       q    Type
REMARK                         _______ _______ _______ _____ _____    ______ ____
ROOT
ATOM      1  O   HOH     1      19.043  -2.024  44.759  0.00  0.00    +0.000 OA
ENDROOT
TORSDOF 0
REMARK  Name = ../refined-set-2016/1ax0/1ax0_pocket.pdb
REMARK  103 active torsions:
REMARK  status: ('A' for Active; 'I' for Inactive)
REMARK    1  A    between atoms: _1  and  _3
REMARK    2  A    between atoms: _3  and  _4
REMARK    3  A    between atoms: _3  and  _6
REMARK    4  A    between atoms: _6  and  _7
REMARK    5  A    between atoms: _17  and  _19
REMARK    6  A    between atoms: _19  and  _20
REMARK    7  A    between atoms: _19  and  _22
REMARK    8  A    between atoms: _22  and  _23
REMARK    9  A    between atoms: _26  and  _28
REMARK   10  A    between atoms: _28  and  _29
REMARK   11  A    between atoms: _28  and  _31
REMARK   12  A    between atoms: _31  and  _32
REMARK   13  A    between atoms: _35  and  _36
REMARK   14  A    between atoms: _41  and  _43
REMARK   15  A    between atoms: _43  and  _44
REMARK   16  A    between atoms: _43  and  _46
REMARK   17  A    between atoms: _46  and  _47
REMARK   18  A    between atoms: _51  and  _52
REMARK   19  A    between atoms: _57  and  _59
REMARK   20  A    between atoms: _59  and  _60
REMARK   21  A    between atoms: _63  and  _65
REMARK   22  A    between atoms: _65  and  _66
REMARK   23  A    between atoms: _65  and  _68
REMARK   24  A    between atoms: _68  and  _69
REMARK   25  A    between atoms: _72  and  _74
REMARK   26  A    between atoms: _74  and  _75
REMARK   27  A    between atoms: _77  and  _79
REMARK   28  A    between atoms: _79  and  _80
REMARK   29  A    between atoms: _79  and  _82
REMARK   30  A    between atoms: _82  and  _83
REMARK   31  A    between atoms: _83  and  _84
REMARK   32  A    between atoms: _89  and  _91
REMARK   33  A    between atoms: _91  and  _92
REMARK   34  A    between atoms: _94  and  _96
REMARK   35  A    between atoms: _96  and  _97
REMARK   36  A    between atoms: _96  and  _99
REMARK   37  A    between atoms: _99  and  _100
REMARK   38  A    between atoms: _105  and  _106
REMARK   39  A    between atoms: _108  and  _110
REMARK   40  A    between atoms: _110  and  _111
REMARK   41  A    between atoms: _113  and  _115
REMARK   42  A    between atoms: _115  and  _116
REMARK   43  A    between atoms: _115  and  _118
REMARK   44  A    between atoms: _118  and  _119
REMARK   45  A    between atoms: _124  and  _125
REMARK   46  A    between atoms: _127  and  _129
REMARK   47  A    between atoms: _129  and  _130
REMARK   48  A    between atoms: _129  and  _132
REMARK   49  A    between atoms: _132  and  _133
REMARK   50  A    between atoms: _136  and  _138
REMARK   51  A    between atoms: _138  and  _139
REMARK   52  A    between atoms: _138  and  _141
REMARK   53  A    between atoms: _141  and  _142
REMARK   54  A    between atoms: _144  and  _146
REMARK   55  A    between atoms: _146  and  _147
REMARK   56  A    between atoms: _146  and  _149
REMARK   57  A    between atoms: _149  and  _150
REMARK   58  A    between atoms: _153  and  _155
REMARK   59  A    between atoms: _155  and  _156
REMARK   60  A    between atoms: _155  and  _158
REMARK   61  A    between atoms: _158  and  _159
REMARK   62  A    between atoms: _167  and  _170
REMARK   63  A    between atoms: _170  and  _171
REMARK   64  A    between atoms: _175  and  _176
REMARK   65  A    between atoms: _179  and  _181
REMARK   66  A    between atoms: _185  and  _186
REMARK   67  A    between atoms: _191  and  _193
REMARK   68  A    between atoms: _193  and  _194
REMARK   69  A    between atoms: _193  and  _196
REMARK   70  A    between atoms: _196  and  _197
REMARK   71  A    between atoms: _207  and  _209
REMARK   72  A    between atoms: _209  and  _210
REMARK   73  A    between atoms: _209  and  _212
REMARK   74  A    between atoms: _212  and  _213
REMARK   75  A    between atoms: _216  and  _218
REMARK   76  A    between atoms: _218  and  _219
REMARK   77  A    between atoms: _222  and  _224
REMARK   78  A    between atoms: _224  and  _225
REMARK   79  A    between atoms: _224  and  _227
REMARK   80  A    between atoms: _227  and  _228
REMARK   81  A    between atoms: _231  and  _233
REMARK   82  A    between atoms: _233  and  _234
REMARK   83  A    between atoms: _236  and  _238
REMARK   84  A    between atoms: _238  and  _239
REMARK   85  A    between atoms: _242  and  _244
REMARK   86  A    between atoms: _244  and  _245
REMARK   87  A    between atoms: _244  and  _247
REMARK   88  A    between atoms: _247  and  _248
REMARK   89  A    between atoms: _248  and  _249
REMARK   90  A    between atoms: _254  and  _256
REMARK   91  A    between atoms: _256  and  _257
REMARK   92  A    between atoms: _256  and  _259
REMARK   93  A    between atoms: _259  and  _260
REMARK   94  A    between atoms: _260  and  _261
REMARK   95  A    between atoms: _261  and  _262
REMARK   96  A    between atoms: _271  and  _273
REMARK   97  A    between atoms: _273  and  _274
REMARK   98  A    between atoms: _273  and  _276
REMARK   99  A    between atoms: _276  and  _277
REMARK  100  A    between atoms: _280  and  _282
REMARK  101  A    between atoms: _282  and  _283
REMARK  102  A    between atoms: _286  and  _288
REMARK  103  A    between atoms: _288  and  _289
REMARK                            x       y       z     vdW  Elec       q    Type
REMARK                         _______ _______ _______ _____ _____    ______ ____
ROOT
ATOM      1  O   HOH     1      18.207   2.749  31.757  0.00  0.00    +0.000 OA
ENDROOT
TORSDOF 0
REMARK  Name = ../refined-set-2016/1ax0/1ax0_pocket.pdb
REMARK  103 active torsions:
REMARK  status: ('A' for Active; 'I' for Inactive)
REMARK    1  A    between atoms: _1  and  _3
REMARK    2  A    between atoms: _3  and  _4
REMARK    3  A    between atoms: _3  and  _6
REMARK    4  A    between atoms: _6  and  _7
REMARK    5  A    between atoms: _17  and  _19
REMARK    6  A    between atoms: _19  and  _20
REMARK    7  A    between atoms: _19  and  _22
REMARK    8  A    between atoms: _22  and  _23
REMARK    9  A    between atoms: _26  and  _28
REMARK   10  A    between atoms: _28  and  _29
REMARK   11  A    between atoms: _28  and  _31
REMARK   12  A    between atoms: _31  and  _32
REMARK   13  A    between atoms: _35  and  _36
REMARK   14  A    between atoms: _41  and  _43
REMARK   15  A    between atoms: _43  and  _44
REMARK   16  A    between atoms: _43  and  _46
REMARK   17  A    between atoms: _46  and  _47
REMARK   18  A    between atoms: _51  and  _52
REMARK   19  A    between atoms: _57  and  _59
REMARK   20  A    between atoms: _59  and  _60
REMARK   21  A    between atoms: _63  and  _65
REMARK   22  A    between atoms: _65  and  _66
REMARK   23  A    between atoms: _65  and  _68
REMARK   24  A    between atoms: _68  and  _69
REMARK   25  A    between atoms: _72  and  _74
REMARK   26  A    between atoms: _74  and  _75
REMARK   27  A    between atoms: _77  and  _79
REMARK   28  A    between atoms: _79  and  _80
REMARK   29  A    between atoms: _79  and  _82
REMARK   30  A    between atoms: _82  and  _83
REMARK   31  A    between atoms: _83  and  _84
REMARK   32  A    between atoms: _89  and  _91
REMARK   33  A    between atoms: _91  and  _92
REMARK   34  A    between atoms: _94  and  _96
REMARK   35  A    between atoms: _96  and  _97
REMARK   36  A    between atoms: _96  and  _99
REMARK   37  A    between atoms: _99  and  _100
REMARK   38  A    between atoms: _105  and  _106
REMARK   39  A    between atoms: _108  and  _110
REMARK   40  A    between atoms: _110  and  _111
REMARK   41  A    between atoms: _113  and  _115
REMARK   42  A    between atoms: _115  and  _116
REMARK   43  A    between atoms: _115  and  _118
REMARK   44  A    between atoms: _118  and  _119
REMARK   45  A    between atoms: _124  and  _125
REMARK   46  A    between atoms: _127  and  _129
REMARK   47  A    between atoms: _129  and  _130
REMARK   48  A    between atoms: _129  and  _132
REMARK   49  A    between atoms: _132  and  _133
REMARK   50  A    between atoms: _136  and  _138
REMARK   51  A    between atoms: _138  and  _139
REMARK   52  A    between atoms: _138  and  _141
REMARK   53  A    between atoms: _141  and  _142
REMARK   54  A    between atoms: _144  and  _146
REMARK   55  A    between atoms: _146  and  _147
REMARK   56  A    between atoms: _146  and  _149
REMARK   57  A    between atoms: _149  and  _150
REMARK   58  A    between atoms: _153  and  _155
REMARK   59  A    between atoms: _155  and  _156
REMARK   60  A    between atoms: _155  and  _158
REMARK   61  A    between atoms: _158  and  _159
REMARK   62  A    between atoms: _167  and  _170
REMARK   63  A    between atoms: _170  and  _171
REMARK   64  A    between atoms: _175  and  _176
REMARK   65  A    between atoms: _179  and  _181
REMARK   66  A    between atoms: _185  and  _186
REMARK   67  A    between atoms: _191  and  _193
REMARK   68  A    between atoms: _193  and  _194
REMARK   69  A    between atoms: _193  and  _196
REMARK   70  A    between atoms: _196  and  _197
REMARK   71  A    between atoms: _207  and  _209
REMARK   72  A    between atoms: _209  and  _210
REMARK   73  A    between atoms: _209  and  _212
REMARK   74  A    between atoms: _212  and  _213
REMARK   75  A    between atoms: _216  and  _218
REMARK   76  A    between atoms: _218  and  _219
REMARK   77  A    between atoms: _222  and  _224
REMARK   78  A    between atoms: _224  and  _225
REMARK   79  A    between atoms: _224  and  _227
REMARK   80  A    between atoms: _227  and  _228
REMARK   81  A    between atoms: _231  and  _233
REMARK   82  A    between atoms: _233  and  _234
REMARK   83  A    between atoms: _236  and  _238
REMARK   84  A    between atoms: _238  and  _239
REMARK   85  A    between atoms: _242  and  _244
REMARK   86  A    between atoms: _244  and  _245
REMARK   87  A    between atoms: _244  and  _247
REMARK   88  A    between atoms: _247  and  _248
REMARK   89  A    between atoms: _248  and  _249
REMARK   90  A    between atoms: _254  and  _256
REMARK   91  A    between atoms: _256  and  _257
REMARK   92  A    between atoms: _256  and  _259
REMARK   93  A    between atoms: _259  and  _260
REMARK   94  A    between atoms: _260  and  _261
REMARK   95  A    between atoms: _261  and  _262
REMARK   96  A    between atoms: _271  and  _273
REMARK   97  A    between atoms: _273  and  _274
REMARK   98  A    between atoms: _273  and  _276
REMARK   99  A    between atoms: _276  and  _277
REMARK  100  A    between atoms: _280  and  _282
REMARK  101  A    between atoms: _282  and  _283
REMARK  102  A    between atoms: _286  and  _288
REMARK  103  A    between atoms: _288  and  _289
REMARK                            x       y       z     vdW  Elec       q    Type
REMARK                         _______ _______ _______ _____ _____    ______ ____
ROOT
ATOM      1  O   HOH     1      18.202   5.880  32.727  0.00  0.00    +0.000 OA
ENDROOT
TORSDOF 0
REMARK  Name = ../refined-set-2016/1ax0/1ax0_pocket.pdb
REMARK  103 active torsions:
REMARK  status: ('A' for Active; 'I' for Inactive)
REMARK    1  A    between atoms: _1  and  _3
REMARK    2  A    between atoms: _3  and  _4
REMARK    3  A    between atoms: _3  and  _6
REMARK    4  A    between atoms: _6  and  _7
REMARK    5  A    between atoms: _17  and  _19
REMARK    6  A    between atoms: _19  and  _20
REMARK    7  A    between atoms: _19  and  _22
REMARK    8  A    between atoms: _22  and  _23
REMARK    9  A    between atoms: _26  and  _28
REMARK   10  A    between atoms: _28  and  _29
REMARK   11  A    between atoms: _28  and  _31
REMARK   12  A    between atoms: _31  and  _32
REMARK   13  A    between atoms: _35  and  _36
REMARK   14  A    between atoms: _41  and  _43
REMARK   15  A    between atoms: _43  and  _44
REMARK   16  A    between atoms: _43  and  _46
REMARK   17  A    between atoms: _46  and  _47
REMARK   18  A    between atoms: _51  and  _52
REMARK   19  A    between atoms: _57  and  _59
REMARK   20  A    between atoms: _59  and  _60
REMARK   21  A    between atoms: _63  and  _65
REMARK   22  A    between atoms: _65  and  _66
REMARK   23  A    between atoms: _65  and  _68
REMARK   24  A    between atoms: _68  and  _69
REMARK   25  A    between atoms: _72  and  _74
REMARK   26  A    between atoms: _74  and  _75
REMARK   27  A    between atoms: _77  and  _79
REMARK   28  A    between atoms: _79  and  _80
REMARK   29  A    between atoms: _79  and  _82
REMARK   30  A    between atoms: _82  and  _83
REMARK   31  A    between atoms: _83  and  _84
REMARK   32  A    between atoms: _89  and  _91
REMARK   33  A    between atoms: _91  and  _92
REMARK   34  A    between atoms: _94  and  _96
REMARK   35  A    between atoms: _96  and  _97
REMARK   36  A    between atoms: _96  and  _99
REMARK   37  A    between atoms: _99  and  _100
REMARK   38  A    between atoms: _105  and  _106
REMARK   39  A    between atoms: _108  and  _110
REMARK   40  A    between atoms: _110  and  _111
REMARK   41  A    between atoms: _113  and  _115
REMARK   42  A    between atoms: _115  and  _116
REMARK   43  A    between atoms: _115  and  _118
REMARK   44  A    between atoms: _118  and  _119
REMARK   45  A    between atoms: _124  and  _125
REMARK   46  A    between atoms: _127  and  _129
REMARK   47  A    between atoms: _129  and  _130
REMARK   48  A    between atoms: _129  and  _132
REMARK   49  A    between atoms: _132  and  _133
REMARK   50  A    between atoms: _136  and  _138
REMARK   51  A    between atoms: _138  and  _139
REMARK   52  A    between atoms: _138  and  _141
REMARK   53  A    between atoms: _141  and  _142
REMARK   54  A    between atoms: _144  and  _146
REMARK   55  A    between atoms: _146  and  _147
REMARK   56  A    between atoms: _146  and  _149
REMARK   57  A    between atoms: _149  and  _150
REMARK   58  A    between atoms: _153  and  _155
REMARK   59  A    between atoms: _155  and  _156
REMARK   60  A    between atoms: _155  and  _158
REMARK   61  A    between atoms: _158  and  _159
REMARK   62  A    between atoms: _167  and  _170
REMARK   63  A    between atoms: _170  and  _171
REMARK   64  A    between atoms: _175  and  _176
REMARK   65  A    between atoms: _179  and  _181
REMARK   66  A    between atoms: _185  and  _186
REMARK   67  A    between atoms: _191  and  _193
REMARK   68  A    between atoms: _193  and  _194
REMARK   69  A    between atoms: _193  and  _196
REMARK   70  A    between atoms: _196  and  _197
REMARK   71  A    between atoms: _207  and  _209
REMARK   72  A    between atoms: _209  and  _210
REMARK   73  A    between atoms: _209  and  _212
REMARK   74  A    between atoms: _212  and  _213
REMARK   75  A    between atoms: _216  and  _218
REMARK   76  A    between atoms: _218  and  _219
REMARK   77  A    between atoms: _222  and  _224
REMARK   78  A    between atoms: _224  and  _225
REMARK   79  A    between atoms: _224  and  _227
REMARK   80  A    between atoms: _227  and  _228
REMARK   81  A    between atoms: _231  and  _233
REMARK   82  A    between atoms: _233  and  _234
REMARK   83  A    between atoms: _236  and  _238
REMARK   84  A    between atoms: _238  and  _239
REMARK   85  A    between atoms: _242  and  _244
REMARK   86  A    between atoms: _244  and  _245
REMARK   87  A    between atoms: _244  and  _247
REMARK   88  A    between atoms: _247  and  _248
REMARK   89  A    between atoms: _248  and  _249
REMARK   90  A    between atoms: _254  and  _256
REMARK   91  A    between atoms: _256  and  _257
REMARK   92  A    between atoms: _256  and  _259
REMARK   93  A    between atoms: _259  and  _260
REMARK   94  A    between atoms: _260  and  _261
REMARK   95  A    between atoms: _261  and  _262
REMARK   96  A    between atoms: _271  and  _273
REMARK   97  A    between atoms: _273  and  _274
REMARK   98  A    between atoms: _273  and  _276
REMARK   99  A    between atoms: _276  and  _277
REMARK  100  A    between atoms: _280  and  _282
REMARK  101  A    between atoms: _282  and  _283
REMARK  102  A    between atoms: _286  and  _288
REMARK  103  A    between atoms: _288  and  _289
REMARK                            x       y       z     vdW  Elec       q    Type
REMARK                         _______ _______ _______ _____ _____    ______ ____
ROOT
ATOM      1  O   HOH     1      22.444  -2.343  35.057  0.00  0.00    +0.000 OA
ENDROOT
TORSDOF 0
REMARK  Name = ../refined-set-2016/1ax0/1ax0_pocket.pdb
REMARK  103 active torsions:
REMARK  status: ('A' for Active; 'I' for Inactive)
REMARK    1  A    between atoms: _1  and  _3
REMARK    2  A    between atoms: _3  and  _4
REMARK    3  A    between atoms: _3  and  _6
REMARK    4  A    between atoms: _6  and  _7
REMARK    5  A    between atoms: _17  and  _19
REMARK    6  A    between atoms: _19  and  _20
REMARK    7  A    between atoms: _19  and  _22
REMARK    8  A    between atoms: _22  and  _23
REMARK    9  A    between atoms: _26  and  _28
REMARK   10  A    between atoms: _28  and  _29
REMARK   11  A    between atoms: _28  and  _31
REMARK   12  A    between atoms: _31  and  _32
REMARK   13  A    between atoms: _35  and  _36
REMARK   14  A    between atoms: _41  and  _43
REMARK   15  A    between atoms: _43  and  _44
REMARK   16  A    between atoms: _43  and  _46
REMARK   17  A    between atoms: _46  and  _47
REMARK   18  A    between atoms: _51  and  _52
REMARK   19  A    between atoms: _57  and  _59
REMARK   20  A    between atoms: _59  and  _60
REMARK   21  A    between atoms: _63  and  _65
REMARK   22  A    between atoms: _65  and  _66
REMARK   23  A    between atoms: _65  and  _68
REMARK   24  A    between atoms: _68  and  _69
REMARK   25  A    between atoms: _72  and  _74
REMARK   26  A    between atoms: _74  and  _75
REMARK   27  A    between atoms: _77  and  _79
REMARK   28  A    between atoms: _79  and  _80
REMARK   29  A    between atoms: _79  and  _82
REMARK   30  A    between atoms: _82  and  _83
REMARK   31  A    between atoms: _83  and  _84
REMARK   32  A    between atoms: _89  and  _91
REMARK   33  A    between atoms: _91  and  _92
REMARK   34  A    between atoms: _94  and  _96
REMARK   35  A    between atoms: _96  and  _97
REMARK   36  A    between atoms: _96  and  _99
REMARK   37  A    between atoms: _99  and  _100
REMARK   38  A    between atoms: _105  and  _106
REMARK   39  A    between atoms: _108  and  _110
REMARK   40  A    between atoms: _110  and  _111
REMARK   41  A    between atoms: _113  and  _115
REMARK   42  A    between atoms: _115  and  _116
REMARK   43  A    between atoms: _115  and  _118
REMARK   44  A    between atoms: _118  and  _119
REMARK   45  A    between atoms: _124  and  _125
REMARK   46  A    between atoms: _127  and  _129
REMARK   47  A    between atoms: _129  and  _130
REMARK   48  A    between atoms: _129  and  _132
REMARK   49  A    between atoms: _132  and  _133
REMARK   50  A    between atoms: _136  and  _138
REMARK   51  A    between atoms: _138  and  _139
REMARK   52  A    between atoms: _138  and  _141
REMARK   53  A    between atoms: _141  and  _142
REMARK   54  A    between atoms: _144  and  _146
REMARK   55  A    between atoms: _146  and  _147
REMARK   56  A    between atoms: _146  and  _149
REMARK   57  A    between atoms: _149  and  _150
REMARK   58  A    between atoms: _153  and  _155
REMARK   59  A    between atoms: _155  and  _156
REMARK   60  A    between atoms: _155  and  _158
REMARK   61  A    between atoms: _158  and  _159
REMARK   62  A    between atoms: _167  and  _170
REMARK   63  A    between atoms: _170  and  _171
REMARK   64  A    between atoms: _175  and  _176
REMARK   65  A    between atoms: _179  and  _181
REMARK   66  A    between atoms: _185  and  _186
REMARK   67  A    between atoms: _191  and  _193
REMARK   68  A    between atoms: _193  and  _194
REMARK   69  A    between atoms: _193  and  _196
REMARK   70  A    between atoms: _196  and  _197
REMARK   71  A    between atoms: _207  and  _209
REMARK   72  A    between atoms: _209  and  _210
REMARK   73  A    between atoms: _209  and  _212
REMARK   74  A    between atoms: _212  and  _213
REMARK   75  A    between atoms: _216  and  _218
REMARK   76  A    between atoms: _218  and  _219
REMARK   77  A    between atoms: _222  and  _224
REMARK   78  A    between atoms: _224  and  _225
REMARK   79  A    between atoms: _224  and  _227
REMARK   80  A    between atoms: _227  and  _228
REMARK   81  A    between atoms: _231  and  _233
REMARK   82  A    between atoms: _233  and  _234
REMARK   83  A    between atoms: _236  and  _238
REMARK   84  A    between atoms: _238  and  _239
REMARK   85  A    between atoms: _242  and  _244
REMARK   86  A    between atoms: _244  and  _245
REMARK   87  A    between atoms: _244  and  _247
REMARK   88  A    between atoms: _247  and  _248
REMARK   89  A    between atoms: _248  and  _249
REMARK   90  A    between atoms: _254  and  _256
REMARK   91  A    between atoms: _256  and  _257
REMARK   92  A    between atoms: _256  and  _259
REMARK   93  A    between atoms: _259  and  _260
REMARK   94  A    between atoms: _260  and  _261
REMARK   95  A    between atoms: _261  and  _262
REMARK   96  A    between atoms: _271  and  _273
REMARK   97  A    between atoms: _273  and  _274
REMARK   98  A    between atoms: _273  and  _276
REMARK   99  A    between atoms: _276  and  _277
REMARK  100  A    between atoms: _280  and  _282
REMARK  101  A    between atoms: _282  and  _283
REMARK  102  A    between atoms: _286  and  _288
REMARK  103  A    between atoms: _288  and  _289
REMARK                            x       y       z     vdW  Elec       q    Type
REMARK                         _______ _______ _______ _____ _____    ______ ____
ROOT
ATOM      1  O   HOH     1      19.734  -0.820  38.591  0.00  0.00    +0.000 OA
ENDROOT
TORSDOF 0
REMARK  Name = ../refined-set-2016/1ax0/1ax0_pocket.pdb
REMARK  103 active torsions:
REMARK  status: ('A' for Active; 'I' for Inactive)
REMARK    1  A    between atoms: _1  and  _3
REMARK    2  A    between atoms: _3  and  _4
REMARK    3  A    between atoms: _3  and  _6
REMARK    4  A    between atoms: _6  and  _7
REMARK    5  A    between atoms: _17  and  _19
REMARK    6  A    between atoms: _19  and  _20
REMARK    7  A    between atoms: _19  and  _22
REMARK    8  A    between atoms: _22  and  _23
REMARK    9  A    between atoms: _26  and  _28
REMARK   10  A    between atoms: _28  and  _29
REMARK   11  A    between atoms: _28  and  _31
REMARK   12  A    between atoms: _31  and  _32
REMARK   13  A    between atoms: _35  and  _36
REMARK   14  A    between atoms: _41  and  _43
REMARK   15  A    between atoms: _43  and  _44
REMARK   16  A    between atoms: _43  and  _46
REMARK   17  A    between atoms: _46  and  _47
REMARK   18  A    between atoms: _51  and  _52
REMARK   19  A    between atoms: _57  and  _59
REMARK   20  A    between atoms: _59  and  _60
REMARK   21  A    between atoms: _63  and  _65
REMARK   22  A    between atoms: _65  and  _66
REMARK   23  A    between atoms: _65  and  _68
REMARK   24  A    between atoms: _68  and  _69
REMARK   25  A    between atoms: _72  and  _74
REMARK   26  A    between atoms: _74  and  _75
REMARK   27  A    between atoms: _77  and  _79
REMARK   28  A    between atoms: _79  and  _80
REMARK   29  A    between atoms: _79  and  _82
REMARK   30  A    between atoms: _82  and  _83
REMARK   31  A    between atoms: _83  and  _84
REMARK   32  A    between atoms: _89  and  _91
REMARK   33  A    between atoms: _91  and  _92
REMARK   34  A    between atoms: _94  and  _96
REMARK   35  A    between atoms: _96  and  _97
REMARK   36  A    between atoms: _96  and  _99
REMARK   37  A    between atoms: _99  and  _100
REMARK   38  A    between atoms: _105  and  _106
REMARK   39  A    between atoms: _108  and  _110
REMARK   40  A    between atoms: _110  and  _111
REMARK   41  A    between atoms: _113  and  _115
REMARK   42  A    between atoms: _115  and  _116
REMARK   43  A    between atoms: _115  and  _118
REMARK   44  A    between atoms: _118  and  _119
REMARK   45  A    between atoms: _124  and  _125
REMARK   46  A    between atoms: _127  and  _129
REMARK   47  A    between atoms: _129  and  _130
REMARK   48  A    between atoms: _129  and  _132
REMARK   49  A    between atoms: _132  and  _133
REMARK   50  A    between atoms: _136  and  _138
REMARK   51  A    between atoms: _138  and  _139
REMARK   52  A    between atoms: _138  and  _141
REMARK   53  A    between atoms: _141  and  _142
REMARK   54  A    between atoms: _144  and  _146
REMARK   55  A    between atoms: _146  and  _147
REMARK   56  A    between atoms: _146  and  _149
REMARK   57  A    between atoms: _149  and  _150
REMARK   58  A    between atoms: _153  and  _155
REMARK   59  A    between atoms: _155  and  _156
REMARK   60  A    between atoms: _155  and  _158
REMARK   61  A    between atoms: _158  and  _159
REMARK   62  A    between atoms: _167  and  _170
REMARK   63  A    between atoms: _170  and  _171
REMARK   64  A    between atoms: _175  and  _176
REMARK   65  A    between atoms: _179  and  _181
REMARK   66  A    between atoms: _185  and  _186
REMARK   67  A    between atoms: _191  and  _193
REMARK   68  A    between atoms: _193  and  _194
REMARK   69  A    between atoms: _193  and  _196
REMARK   70  A    between atoms: _196  and  _197
REMARK   71  A    between atoms: _207  and  _209
REMARK   72  A    between atoms: _209  and  _210
REMARK   73  A    between atoms: _209  and  _212
REMARK   74  A    between atoms: _212  and  _213
REMARK   75  A    between atoms: _216  and  _218
REMARK   76  A    between atoms: _218  and  _219
REMARK   77  A    between atoms: _222  and  _224
REMARK   78  A    between atoms: _224  and  _225
REMARK   79  A    between atoms: _224  and  _227
REMARK   80  A    between atoms: _227  and  _228
REMARK   81  A    between atoms: _231  and  _233
REMARK   82  A    between atoms: _233  and  _234
REMARK   83  A    between atoms: _236  and  _238
REMARK   84  A    between atoms: _238  and  _239
REMARK   85  A    between atoms: _242  and  _244
REMARK   86  A    between atoms: _244  and  _245
REMARK   87  A    between atoms: _244  and  _247
REMARK   88  A    between atoms: _247  and  _248
REMARK   89  A    between atoms: _248  and  _249
REMARK   90  A    between atoms: _254  and  _256
REMARK   91  A    between atoms: _256  and  _257
REMARK   92  A    between atoms: _256  and  _259
REMARK   93  A    between atoms: _259  and  _260
REMARK   94  A    between atoms: _260  and  _261
REMARK   95  A    between atoms: _261  and  _262
REMARK   96  A    between atoms: _271  and  _273
REMARK   97  A    between atoms: _273  and  _274
REMARK   98  A    between atoms: _273  and  _276
REMARK   99  A    between atoms: _276  and  _277
REMARK  100  A    between atoms: _280  and  _282
REMARK  101  A    between atoms: _282  and  _283
REMARK  102  A    between atoms: _286  and  _288
REMARK  103  A    between atoms: _288  and  _289
REMARK                            x       y       z     vdW  Elec       q    Type
REMARK                         _______ _______ _______ _____ _____    ______ ____
ROOT
ATOM      1  O   HOH     1      20.909 -10.689  38.352  0.00  0.00    +0.000 OA
ENDROOT
TORSDOF 0
REMARK  Name = ../refined-set-2016/1ax0/1ax0_pocket.pdb
REMARK  103 active torsions:
REMARK  status: ('A' for Active; 'I' for Inactive)
REMARK    1  A    between atoms: _1  and  _3
REMARK    2  A    between atoms: _3  and  _4
REMARK    3  A    between atoms: _3  and  _6
REMARK    4  A    between atoms: _6  and  _7
REMARK    5  A    between atoms: _17  and  _19
REMARK    6  A    between atoms: _19  and  _20
REMARK    7  A    between atoms: _19  and  _22
REMARK    8  A    between atoms: _22  and  _23
REMARK    9  A    between atoms: _26  and  _28
REMARK   10  A    between atoms: _28  and  _29
REMARK   11  A    between atoms: _28  and  _31
REMARK   12  A    between atoms: _31  and  _32
REMARK   13  A    between atoms: _35  and  _36
REMARK   14  A    between atoms: _41  and  _43
REMARK   15  A    between atoms: _43  and  _44
REMARK   16  A    between atoms: _43  and  _46
REMARK   17  A    between atoms: _46  and  _47
REMARK   18  A    between atoms: _51  and  _52
REMARK   19  A    between atoms: _57  and  _59
REMARK   20  A    between atoms: _59  and  _60
REMARK   21  A    between atoms: _63  and  _65
REMARK   22  A    between atoms: _65  and  _66
REMARK   23  A    between atoms: _65  and  _68
REMARK   24  A    between atoms: _68  and  _69
REMARK   25  A    between atoms: _72  and  _74
REMARK   26  A    between atoms: _74  and  _75
REMARK   27  A    between atoms: _77  and  _79
REMARK   28  A    between atoms: _79  and  _80
REMARK   29  A    between atoms: _79  and  _82
REMARK   30  A    between atoms: _82  and  _83
REMARK   31  A    between atoms: _83  and  _84
REMARK   32  A    between atoms: _89  and  _91
REMARK   33  A    between atoms: _91  and  _92
REMARK   34  A    between atoms: _94  and  _96
REMARK   35  A    between atoms: _96  and  _97
REMARK   36  A    between atoms: _96  and  _99
REMARK   37  A    between atoms: _99  and  _100
REMARK   38  A    between atoms: _105  and  _106
REMARK   39  A    between atoms: _108  and  _110
REMARK   40  A    between atoms: _110  and  _111
REMARK   41  A    between atoms: _113  and  _115
REMARK   42  A    between atoms: _115  and  _116
REMARK   43  A    between atoms: _115  and  _118
REMARK   44  A    between atoms: _118  and  _119
REMARK   45  A    between atoms: _124  and  _125
REMARK   46  A    between atoms: _127  and  _129
REMARK   47  A    between atoms: _129  and  _130
REMARK   48  A    between atoms: _129  and  _132
REMARK   49  A    between atoms: _132  and  _133
REMARK   50  A    between atoms: _136  and  _138
REMARK   51  A    between atoms: _138  and  _139
REMARK   52  A    between atoms: _138  and  _141
REMARK   53  A    between atoms: _141  and  _142
REMARK   54  A    between atoms: _144  and  _146
REMARK   55  A    between atoms: _146  and  _147
REMARK   56  A    between atoms: _146  and  _149
REMARK   57  A    between atoms: _149  and  _150
REMARK   58  A    between atoms: _153  and  _155
REMARK   59  A    between atoms: _155  and  _156
REMARK   60  A    between atoms: _155  and  _158
REMARK   61  A    between atoms: _158  and  _159
REMARK   62  A    between atoms: _167  and  _170
REMARK   63  A    between atoms: _170  and  _171
REMARK   64  A    between atoms: _175  and  _176
REMARK   65  A    between atoms: _179  and  _181
REMARK   66  A    between atoms: _185  and  _186
REMARK   67  A    between atoms: _191  and  _193
REMARK   68  A    between atoms: _193  and  _194
REMARK   69  A    between atoms: _193  and  _196
REMARK   70  A    between atoms: _196  and  _197
REMARK   71  A    between atoms: _207  and  _209
REMARK   72  A    between atoms: _209  and  _210
REMARK   73  A    between atoms: _209  and  _212
REMARK   74  A    between atoms: _212  and  _213
REMARK   75  A    between atoms: _216  and  _218
REMARK   76  A    between atoms: _218  and  _219
REMARK   77  A    between atoms: _222  and  _224
REMARK   78  A    between atoms: _224  and  _225
REMARK   79  A    between atoms: _224  and  _227
REMARK   80  A    between atoms: _227  and  _228
REMARK   81  A    between atoms: _231  and  _233
REMARK   82  A    between atoms: _233  and  _234
REMARK   83  A    between atoms: _236  and  _238
REMARK   84  A    between atoms: _238  and  _239
REMARK   85  A    between atoms: _242  and  _244
REMARK   86  A    between atoms: _244  and  _245
REMARK   87  A    between atoms: _244  and  _247
REMARK   88  A    between atoms: _247  and  _248
REMARK   89  A    between atoms: _248  and  _249
REMARK   90  A    between atoms: _254  and  _256
REMARK   91  A    between atoms: _256  and  _257
REMARK   92  A    between atoms: _256  and  _259
REMARK   93  A    between atoms: _259  and  _260
REMARK   94  A    between atoms: _260  and  _261
REMARK   95  A    between atoms: _261  and  _262
REMARK   96  A    between atoms: _271  and  _273
REMARK   97  A    between atoms: _273  and  _274
REMARK   98  A    between atoms: _273  and  _276
REMARK   99  A    between atoms: _276  and  _277
REMARK  100  A    between atoms: _280  and  _282
REMARK  101  A    between atoms: _282  and  _283
REMARK  102  A    between atoms: _286  and  _288
REMARK  103  A    between atoms: _288  and  _289
REMARK                            x       y       z     vdW  Elec       q    Type
REMARK                         _______ _______ _______ _____ _____    ______ ____
ROOT
ATOM      1  O   HOH     1      15.009   2.092  38.073  0.00  0.00    +0.000 OA
ENDROOT
TORSDOF 0
REMARK  Name = ../refined-set-2016/1ax0/1ax0_pocket.pdb
REMARK  103 active torsions:
REMARK  status: ('A' for Active; 'I' for Inactive)
REMARK    1  A    between atoms: _1  and  _3
REMARK    2  A    between atoms: _3  and  _4
REMARK    3  A    between atoms: _3  and  _6
REMARK    4  A    between atoms: _6  and  _7
REMARK    5  A    between atoms: _17  and  _19
REMARK    6  A    between atoms: _19  and  _20
REMARK    7  A    between atoms: _19  and  _22
REMARK    8  A    between atoms: _22  and  _23
REMARK    9  A    between atoms: _26  and  _28
REMARK   10  A    between atoms: _28  and  _29
REMARK   11  A    between atoms: _28  and  _31
REMARK   12  A    between atoms: _31  and  _32
REMARK   13  A    between atoms: _35  and  _36
REMARK   14  A    between atoms: _41  and  _43
REMARK   15  A    between atoms: _43  and  _44
REMARK   16  A    between atoms: _43  and  _46
REMARK   17  A    between atoms: _46  and  _47
REMARK   18  A    between atoms: _51  and  _52
REMARK   19  A    between atoms: _57  and  _59
REMARK   20  A    between atoms: _59  and  _60
REMARK   21  A    between atoms: _63  and  _65
REMARK   22  A    between atoms: _65  and  _66
REMARK   23  A    between atoms: _65  and  _68
REMARK   24  A    between atoms: _68  and  _69
REMARK   25  A    between atoms: _72  and  _74
REMARK   26  A    between atoms: _74  and  _75
REMARK   27  A    between atoms: _77  and  _79
REMARK   28  A    between atoms: _79  and  _80
REMARK   29  A    between atoms: _79  and  _82
REMARK   30  A    between atoms: _82  and  _83
REMARK   31  A    between atoms: _83  and  _84
REMARK   32  A    between atoms: _89  and  _91
REMARK   33  A    between atoms: _91  and  _92
REMARK   34  A    between atoms: _94  and  _96
REMARK   35  A    between atoms: _96  and  _97
REMARK   36  A    between atoms: _96  and  _99
REMARK   37  A    between atoms: _99  and  _100
REMARK   38  A    between atoms: _105  and  _106
REMARK   39  A    between atoms: _108  and  _110
REMARK   40  A    between atoms: _110  and  _111
REMARK   41  A    between atoms: _113  and  _115
REMARK   42  A    between atoms: _115  and  _116
REMARK   43  A    between atoms: _115  and  _118
REMARK   44  A    between atoms: _118  and  _119
REMARK   45  A    between atoms: _124  and  _125
REMARK   46  A    between atoms: _127  and  _129
REMARK   47  A    between atoms: _129  and  _130
REMARK   48  A    between atoms: _129  and  _132
REMARK   49  A    between atoms: _132  and  _133
REMARK   50  A    between atoms: _136  and  _138
REMARK   51  A    between atoms: _138  and  _139
REMARK   52  A    between atoms: _138  and  _141
REMARK   53  A    between atoms: _141  and  _142
REMARK   54  A    between atoms: _144  and  _146
REMARK   55  A    between atoms: _146  and  _147
REMARK   56  A    between atoms: _146  and  _149
REMARK   57  A    between atoms: _149  and  _150
REMARK   58  A    between atoms: _153  and  _155
REMARK   59  A    between atoms: _155  and  _156
REMARK   60  A    between atoms: _155  and  _158
REMARK   61  A    between atoms: _158  and  _159
REMARK   62  A    between atoms: _167  and  _170
REMARK   63  A    between atoms: _170  and  _171
REMARK   64  A    between atoms: _175  and  _176
REMARK   65  A    between atoms: _179  and  _181
REMARK   66  A    between atoms: _185  and  _186
REMARK   67  A    between atoms: _191  and  _193
REMARK   68  A    between atoms: _193  and  _194
REMARK   69  A    between atoms: _193  and  _196
REMARK   70  A    between atoms: _196  and  _197
REMARK   71  A    between atoms: _207  and  _209
REMARK   72  A    between atoms: _209  and  _210
REMARK   73  A    between atoms: _209  and  _212
REMARK   74  A    between atoms: _212  and  _213
REMARK   75  A    between atoms: _216  and  _218
REMARK   76  A    between atoms: _218  and  _219
REMARK   77  A    between atoms: _222  and  _224
REMARK   78  A    between atoms: _224  and  _225
REMARK   79  A    between atoms: _224  and  _227
REMARK   80  A    between atoms: _227  and  _228
REMARK   81  A    between atoms: _231  and  _233
REMARK   82  A    between atoms: _233  and  _234
REMARK   83  A    between atoms: _236  and  _238
REMARK   84  A    between atoms: _238  and  _239
REMARK   85  A    between atoms: _242  and  _244
REMARK   86  A    between atoms: _244  and  _245
REMARK   87  A    between atoms: _244  and  _247
REMARK   88  A    between atoms: _247  and  _248
REMARK   89  A    between atoms: _248  and  _249
REMARK   90  A    between atoms: _254  and  _256
REMARK   91  A    between atoms: _256  and  _257
REMARK   92  A    between atoms: _256  and  _259
REMARK   93  A    between atoms: _259  and  _260
REMARK   94  A    between atoms: _260  and  _261
REMARK   95  A    between atoms: _261  and  _262
REMARK   96  A    between atoms: _271  and  _273
REMARK   97  A    between atoms: _273  and  _274
REMARK   98  A    between atoms: _273  and  _276
REMARK   99  A    between atoms: _276  and  _277
REMARK  100  A    between atoms: _280  and  _282
REMARK  101  A    between atoms: _282  and  _283
REMARK  102  A    between atoms: _286  and  _288
REMARK  103  A    between atoms: _288  and  _289
REMARK                            x       y       z     vdW  Elec       q    Type
REMARK                         _______ _______ _______ _____ _____    ______ ____
ROOT
ATOM      1  O   HOH     1      20.753   2.642  36.786  0.00  0.00    +0.000 OA
ENDROOT
TORSDOF 0
REMARK  Name = ../refined-set-2016/1ax0/1ax0_pocket.pdb
REMARK  103 active torsions:
REMARK  status: ('A' for Active; 'I' for Inactive)
REMARK    1  A    between atoms: _1  and  _3
REMARK    2  A    between atoms: _3  and  _4
REMARK    3  A    between atoms: _3  and  _6
REMARK    4  A    between atoms: _6  and  _7
REMARK    5  A    between atoms: _17  and  _19
REMARK    6  A    between atoms: _19  and  _20
REMARK    7  A    between atoms: _19  and  _22
REMARK    8  A    between atoms: _22  and  _23
REMARK    9  A    between atoms: _26  and  _28
REMARK   10  A    between atoms: _28  and  _29
REMARK   11  A    between atoms: _28  and  _31
REMARK   12  A    between atoms: _31  and  _32
REMARK   13  A    between atoms: _35  and  _36
REMARK   14  A    between atoms: _41  and  _43
REMARK   15  A    between atoms: _43  and  _44
REMARK   16  A    between atoms: _43  and  _46
REMARK   17  A    between atoms: _46  and  _47
REMARK   18  A    between atoms: _51  and  _52
REMARK   19  A    between atoms: _57  and  _59
REMARK   20  A    between atoms: _59  and  _60
REMARK   21  A    between atoms: _63  and  _65
REMARK   22  A    between atoms: _65  and  _66
REMARK   23  A    between atoms: _65  and  _68
REMARK   24  A    between atoms: _68  and  _69
REMARK   25  A    between atoms: _72  and  _74
REMARK   26  A    between atoms: _74  and  _75
REMARK   27  A    between atoms: _77  and  _79
REMARK   28  A    between atoms: _79  and  _80
REMARK   29  A    between atoms: _79  and  _82
REMARK   30  A    between atoms: _82  and  _83
REMARK   31  A    between atoms: _83  and  _84
REMARK   32  A    between atoms: _89  and  _91
REMARK   33  A    between atoms: _91  and  _92
REMARK   34  A    between atoms: _94  and  _96
REMARK   35  A    between atoms: _96  and  _97
REMARK   36  A    between atoms: _96  and  _99
REMARK   37  A    between atoms: _99  and  _100
REMARK   38  A    between atoms: _105  and  _106
REMARK   39  A    between atoms: _108  and  _110
REMARK   40  A    between atoms: _110  and  _111
REMARK   41  A    between atoms: _113  and  _115
REMARK   42  A    between atoms: _115  and  _116
REMARK   43  A    between atoms: _115  and  _118
REMARK   44  A    between atoms: _118  and  _119
REMARK   45  A    between atoms: _124  and  _125
REMARK   46  A    between atoms: _127  and  _129
REMARK   47  A    between atoms: _129  and  _130
REMARK   48  A    between atoms: _129  and  _132
REMARK   49  A    between atoms: _132  and  _133
REMARK   50  A    between atoms: _136  and  _138
REMARK   51  A    between atoms: _138  and  _139
REMARK   52  A    between atoms: _138  and  _141
REMARK   53  A    between atoms: _141  and  _142
REMARK   54  A    between atoms: _144  and  _146
REMARK   55  A    between atoms: _146  and  _147
REMARK   56  A    between atoms: _146  and  _149
REMARK   57  A    between atoms: _149  and  _150
REMARK   58  A    between atoms: _153  and  _155
REMARK   59  A    between atoms: _155  and  _156
REMARK   60  A    between atoms: _155  and  _158
REMARK   61  A    between atoms: _158  and  _159
REMARK   62  A    between atoms: _167  and  _170
REMARK   63  A    between atoms: _170  and  _171
REMARK   64  A    between atoms: _175  and  _176
REMARK   65  A    between atoms: _179  and  _181
REMARK   66  A    between atoms: _185  and  _186
REMARK   67  A    between atoms: _191  and  _193
REMARK   68  A    between atoms: _193  and  _194
REMARK   69  A    between atoms: _193  and  _196
REMARK   70  A    between atoms: _196  and  _197
REMARK   71  A    between atoms: _207  and  _209
REMARK   72  A    between atoms: _209  and  _210
REMARK   73  A    between atoms: _209  and  _212
REMARK   74  A    between atoms: _212  and  _213
REMARK   75  A    between atoms: _216  and  _218
REMARK   76  A    between atoms: _218  and  _219
REMARK   77  A    between atoms: _222  and  _224
REMARK   78  A    between atoms: _224  and  _225
REMARK   79  A    between atoms: _224  and  _227
REMARK   80  A    between atoms: _227  and  _228
REMARK   81  A    between atoms: _231  and  _233
REMARK   82  A    between atoms: _233  and  _234
REMARK   83  A    between atoms: _236  and  _238
REMARK   84  A    between atoms: _238  and  _239
REMARK   85  A    between atoms: _242  and  _244
REMARK   86  A    between atoms: _244  and  _245
REMARK   87  A    between atoms: _244  and  _247
REMARK   88  A    between atoms: _247  and  _248
REMARK   89  A    between atoms: _248  and  _249
REMARK   90  A    between atoms: _254  and  _256
REMARK   91  A    between atoms: _256  and  _257
REMARK   92  A    between atoms: _256  and  _259
REMARK   93  A    between atoms: _259  and  _260
REMARK   94  A    between atoms: _260  and  _261
REMARK   95  A    between atoms: _261  and  _262
REMARK   96  A    between atoms: _271  and  _273
REMARK   97  A    between atoms: _273  and  _274
REMARK   98  A    between atoms: _273  and  _276
REMARK   99  A    between atoms: _276  and  _277
REMARK  100  A    between atoms: _280  and  _282
REMARK  101  A    between atoms: _282  and  _283
REMARK  102  A    between atoms: _286  and  _288
REMARK  103  A    between atoms: _288  and  _289
REMARK                            x       y       z     vdW  Elec       q    Type
REMARK                         _______ _______ _______ _____ _____    ______ ____
ROOT
ATOM      1  O   HOH     1      17.750   0.966  26.517  0.00  0.00    +0.000 OA
ENDROOT
TORSDOF 0
