REMARK  Name = ../refined-set-2016/1ur9/1ur9_pocket.pdb
REMARK  225 active torsions:
REMARK  status: ('A' for Active; 'I' for Inactive)
REMARK    1  A    between atoms: _1  and  _3
REMARK    2  A    between atoms: _3  and  _4
REMARK    3  A    between atoms: _3  and  _6
REMARK    4  A    between atoms: _6  and  _7
REMARK    5  A    between atoms: _12  and  _13
REMARK    6  A    between atoms: _15  and  _17
REMARK    7  A    between atoms: _17  and  _18
REMARK    8  A    between atoms: _17  and  _20
REMARK    9  A    between atoms: _20  and  _21
REMARK   10  A    between atoms: _28  and  _29
REMARK   11  A    between atoms: _34  and  _36
REMARK   12  A    between atoms: _36  and  _37
REMARK   13  A    between atoms: _36  and  _39
REMARK   14  A    between atoms: _39  and  _40
REMARK   15  A    between atoms: _45  and  _47
REMARK   16  A    between atoms: _47  and  _48
REMARK   17  A    between atoms: _47  and  _50
REMARK   18  A    between atoms: _50  and  _51
REMARK   19  A    between atoms: _53  and  _55
REMARK   20  A    between atoms: _55  and  _56
REMARK   21  A    between atoms: _55  and  _58
REMARK   22  A    between atoms: _58  and  _59
REMARK   23  A    between atoms: _65  and  _67
REMARK   24  A    between atoms: _67  and  _68
REMARK   25  A    between atoms: _67  and  _70
REMARK   26  A    between atoms: _70  and  _71
REMARK   27  A    between atoms: _73  and  _75
REMARK   28  A    between atoms: _75  and  _76
REMARK   29  A    between atoms: _78  and  _80
REMARK   30  A    between atoms: _80  and  _81
REMARK   31  A    between atoms: _83  and  _85
REMARK   32  A    between atoms: _85  and  _86
REMARK   33  A    between atoms: _85  and  _88
REMARK   34  A    between atoms: _88  and  _89
REMARK   35  A    between atoms: _99  and  _101
REMARK   36  A    between atoms: _101  and  _102
REMARK   37  A    between atoms: _101  and  _104
REMARK   38  A    between atoms: _104  and  _105
REMARK   39  A    between atoms: _110  and  _111
REMARK   40  A    between atoms: _113  and  _115
REMARK   41  A    between atoms: _115  and  _116
REMARK   42  A    between atoms: _115  and  _118
REMARK   43  A    between atoms: _118  and  _119
REMARK   44  A    between atoms: _124  and  _125
REMARK   45  A    between atoms: _127  and  _129
REMARK   46  A    between atoms: _129  and  _130
REMARK   47  A    between atoms: _129  and  _132
REMARK   48  A    between atoms: _132  and  _133
REMARK   49  A    between atoms: _135  and  _137
REMARK   50  A    between atoms: _137  and  _138
REMARK   51  A    between atoms: _137  and  _140
REMARK   52  A    between atoms: _140  and  _141
REMARK   53  A    between atoms: _146  and  _148
REMARK   54  A    between atoms: _148  and  _149
REMARK   55  A    between atoms: _148  and  _151
REMARK   56  A    between atoms: _151  and  _152
REMARK   57  A    between atoms: _155  and  _157
REMARK   58  A    between atoms: _157  and  _158
REMARK   59  A    between atoms: _157  and  _160
REMARK   60  A    between atoms: _160  and  _161
REMARK   61  A    between atoms: _164  and  _166
REMARK   62  A    between atoms: _166  and  _167
REMARK   63  A    between atoms: _166  and  _169
REMARK   64  A    between atoms: _169  and  _170
REMARK   65  A    between atoms: _175  and  _177
REMARK   66  A    between atoms: _177  and  _178
REMARK   67  A    between atoms: _177  and  _180
REMARK   68  A    between atoms: _180  and  _181
REMARK   69  A    between atoms: _191  and  _193
REMARK   70  A    between atoms: _193  and  _194
REMARK   71  A    between atoms: _193  and  _196
REMARK   72  A    between atoms: _196  and  _197
REMARK   73  A    between atoms: _197  and  _198
REMARK   74  A    between atoms: _201  and  _203
REMARK   75  A    between atoms: _203  and  _204
REMARK   76  A    between atoms: _203  and  _206
REMARK   77  A    between atoms: _206  and  _207
REMARK   78  A    between atoms: _212  and  _213
REMARK   79  A    between atoms: _215  and  _217
REMARK   80  A    between atoms: _217  and  _218
REMARK   81  A    between atoms: _217  and  _220
REMARK   82  A    between atoms: _220  and  _221
REMARK   83  A    between atoms: _224  and  _226
REMARK   84  A    between atoms: _226  and  _227
REMARK   85  A    between atoms: _230  and  _232
REMARK   86  A    between atoms: _232  and  _233
REMARK   87  A    between atoms: _235  and  _237
REMARK   88  A    between atoms: _237  and  _238
REMARK   89  A    between atoms: _241  and  _243
REMARK   90  A    between atoms: _243  and  _244
REMARK   91  A    between atoms: _246  and  _248
REMARK   92  A    between atoms: _248  and  _249
REMARK   93  A    between atoms: _251  and  _253
REMARK   94  A    between atoms: _253  and  _254
REMARK   95  A    between atoms: _253  and  _256
REMARK   96  A    between atoms: _256  and  _257
REMARK   97  A    between atoms: _263  and  _265
REMARK   98  A    between atoms: _265  and  _266
REMARK   99  A    between atoms: _265  and  _268
REMARK  100  A    between atoms: _268  and  _269
REMARK  101  A    between atoms: _275  and  _277
REMARK  102  A    between atoms: _277  and  _278
REMARK  103  A    between atoms: _277  and  _280
REMARK  104  A    between atoms: _280  and  _281
REMARK  105  A    between atoms: _281  and  _282
REMARK  106  A    between atoms: _282  and  _283
REMARK  107  A    between atoms: _292  and  _294
REMARK  108  A    between atoms: _294  and  _295
REMARK  109  A    between atoms: _294  and  _297
REMARK  110  A    between atoms: _297  and  _298
REMARK  111  A    between atoms: _303  and  _305
REMARK  112  A    between atoms: _305  and  _306
REMARK  113  A    between atoms: _305  and  _308
REMARK  114  A    between atoms: _308  and  _309
REMARK  115  A    between atoms: _312  and  _314
REMARK  116  A    between atoms: _314  and  _315
REMARK  117  A    between atoms: _314  and  _317
REMARK  118  A    between atoms: _317  and  _318
REMARK  119  A    between atoms: _318  and  _319
REMARK  120  A    between atoms: _321  and  _323
REMARK  121  A    between atoms: _323  and  _324
REMARK  122  A    between atoms: _323  and  _326
REMARK  123  A    between atoms: _326  and  _327
REMARK  124  A    between atoms: _330  and  _332
REMARK  125  A    between atoms: _332  and  _333
REMARK  126  A    between atoms: _332  and  _335
REMARK  127  A    between atoms: _335  and  _336
REMARK  128  A    between atoms: _341  and  _342
REMARK  129  A    between atoms: _344  and  _346
REMARK  130  A    between atoms: _346  and  _347
REMARK  131  A    between atoms: _346  and  _349
REMARK  132  A    between atoms: _349  and  _350
REMARK  133  A    between atoms: _353  and  _355
REMARK  134  A    between atoms: _355  and  _356
REMARK  135  A    between atoms: _355  and  _358
REMARK  136  A    between atoms: _358  and  _359
REMARK  137  A    between atoms: _362  and  _364
REMARK  138  A    between atoms: _364  and  _365
REMARK  139  A    between atoms: _368  and  _370
REMARK  140  A    between atoms: _370  and  _371
REMARK  141  A    between atoms: _373  and  _375
REMARK  142  A    between atoms: _375  and  _376
REMARK  143  A    between atoms: _375  and  _378
REMARK  144  A    between atoms: _378  and  _379
REMARK  145  A    between atoms: _389  and  _391
REMARK  146  A    between atoms: _391  and  _392
REMARK  147  A    between atoms: _391  and  _394
REMARK  148  A    between atoms: _394  and  _395
REMARK  149  A    between atoms: _395  and  _396
REMARK  150  A    between atoms: _399  and  _401
REMARK  151  A    between atoms: _401  and  _402
REMARK  152  A    between atoms: _401  and  _404
REMARK  153  A    between atoms: _404  and  _405
REMARK  154  A    between atoms: _405  and  _406
REMARK  155  A    between atoms: _411  and  _413
REMARK  156  A    between atoms: _413  and  _414
REMARK  157  A    between atoms: _413  and  _416
REMARK  158  A    between atoms: _420  and  _421
REMARK  159  A    between atoms: _426  and  _428
REMARK  160  A    between atoms: _428  and  _429
REMARK  161  A    between atoms: _428  and  _431
REMARK  162  A    between atoms: _431  and  _432
REMARK  163  A    between atoms: _438  and  _440
REMARK  164  A    between atoms: _440  and  _441
REMARK  165  A    between atoms: _440  and  _443
REMARK  166  A    between atoms: _443  and  _444
REMARK  167  A    between atoms: _449  and  _450
REMARK  168  A    between atoms: _452  and  _454
REMARK  169  A    between atoms: _454  and  _455
REMARK  170  A    between atoms: _457  and  _459
REMARK  171  A    between atoms: _459  and  _460
REMARK  172  A    between atoms: _459  and  _462
REMARK  173  A    between atoms: _462  and  _463
REMARK  174  A    between atoms: _463  and  _464
REMARK  175  A    between atoms: _464  and  _465
REMARK  176  A    between atoms: _474  and  _476
REMARK  177  A    between atoms: _476  and  _477
REMARK  178  A    between atoms: _476  and  _479
REMARK  179  A    between atoms: _479  and  _480
REMARK  180  A    between atoms: _483  and  _485
REMARK  181  A    between atoms: _485  and  _486
REMARK  182  A    between atoms: _485  and  _488
REMARK  183  A    between atoms: _488  and  _489
REMARK  184  A    between atoms: _492  and  _494
REMARK  185  A    between atoms: _494  and  _495
REMARK  186  A    between atoms: _494  and  _497
REMARK  187  A    between atoms: _497  and  _498
REMARK  188  A    between atoms: _501  and  _503
REMARK  189  A    between atoms: _503  and  _504
REMARK  190  A    between atoms: _503  and  _506
REMARK  191  A    between atoms: _506  and  _507
REMARK  192  A    between atoms: _507  and  _508
REMARK  193  A    between atoms: _508  and  _509
REMARK  194  A    between atoms: _518  and  _520
REMARK  195  A    between atoms: _520  and  _521
REMARK  196  A    between atoms: _520  and  _523
REMARK  197  A    between atoms: _523  and  _524
REMARK  198  A    between atoms: _527  and  _529
REMARK  199  A    between atoms: _529  and  _530
REMARK  200  A    between atoms: _533  and  _535
REMARK  201  A    between atoms: _535  and  _536
REMARK  202  A    between atoms: _535  and  _538
REMARK  203  A    between atoms: _538  and  _539
REMARK  204  A    between atoms: _541  and  _543
REMARK  205  A    between atoms: _543  and  _544
REMARK  206  A    between atoms: _543  and  _546
REMARK  207  A    between atoms: _546  and  _547
REMARK  208  A    between atoms: _547  and  _548
REMARK  209  A    between atoms: _550  and  _552
REMARK  210  A    between atoms: _552  and  _553
REMARK  211  A    between atoms: _552  and  _555
REMARK  212  A    between atoms: _555  and  _556
REMARK  213  A    between atoms: _562  and  _564
REMARK  214  A    between atoms: _564  and  _565
REMARK  215  A    between atoms: _564  and  _567
REMARK  216  A    between atoms: _567  and  _568
REMARK  217  A    between atoms: _578  and  _580
REMARK  218  A    between atoms: _580  and  _581
REMARK  219  A    between atoms: _580  and  _583
REMARK  220  A    between atoms: _583  and  _584
REMARK  221  A    between atoms: _589  and  _591
REMARK  222  A    between atoms: _591  and  _592
REMARK  223  A    between atoms: _591  and  _594
REMARK  224  A    between atoms: _594  and  _595
REMARK  225  A    between atoms: _595  and  _596
REMARK                            x       y       z     vdW  Elec       q    Type
REMARK                         _______ _______ _______ _____ _____    ______ ____
ROOT
ATOM      1  CG  TYR A   1      17.745  48.557 107.638  0.00  0.00    -0.020 A 
ATOM      2  CD2 TYR A   1      18.925  49.168 107.229  0.00  0.00    -0.001 A 
ATOM      3  CE2 TYR A   1      18.933  50.119 106.199  0.00  0.00    +0.036 A 
ATOM      4  CZ  TYR A   1      17.736  50.472 105.572  0.00  0.00    +0.134 A 
ATOM      5  CE1 TYR A   1      16.547  49.866 105.961  0.00  0.00    +0.036 A 
ATOM      6  CD1 TYR A   1      16.552  48.919 106.989  0.00  0.00    -0.001 A 
ENDROOT
BRANCH   4   7
ATOM      7  OH  TYR A   1      17.739  51.469 104.614  0.00  0.00    -0.506 OA
ATOM      8  HH  TYR A   1      17.182  52.226 104.925  0.00  0.00    +0.292 HD
ENDBRANCH   4   7
BRANCH   1   9
ATOM      9  CB  TYR A   1      17.736  47.552 108.755  0.00  0.00    +0.051 C 
BRANCH   9  10
ATOM     10  CA  TYR A   1      17.633  48.155 110.151  0.00  0.00    +0.137 C 
BRANCH  10  11
ATOM     11  N   TYR A   1      18.938  48.584 110.659  0.00  0.00    -0.239 NA
ATOM     12  H   TYR A   1      19.809  48.385 110.126  0.00  0.00    +0.142 HD
ENDBRANCH  10  11
BRANCH  10  13
ATOM     13  C   TYR A   1      17.251  47.057 111.150  0.00  0.00    +0.224 C 
ATOM     14  O   TYR A   1      18.131  46.408 111.715  0.00  0.00    -0.287 OA
ENDBRANCH  10  13
ENDBRANCH   9  10
ENDBRANCH   1   9
TORSDOF 5
REMARK  Name = ../refined-set-2016/1ur9/1ur9_pocket.pdb
REMARK  225 active torsions:
REMARK  status: ('A' for Active; 'I' for Inactive)
REMARK    1  A    between atoms: _1  and  _3
REMARK    2  A    between atoms: _3  and  _4
REMARK    3  A    between atoms: _3  and  _6
REMARK    4  A    between atoms: _6  and  _7
REMARK    5  A    between atoms: _12  and  _13
REMARK    6  A    between atoms: _15  and  _17
REMARK    7  A    between atoms: _17  and  _18
REMARK    8  A    between atoms: _17  and  _20
REMARK    9  A    between atoms: _20  and  _21
REMARK   10  A    between atoms: _28  and  _29
REMARK   11  A    between atoms: _34  and  _36
REMARK   12  A    between atoms: _36  and  _37
REMARK   13  A    between atoms: _36  and  _39
REMARK   14  A    between atoms: _39  and  _40
REMARK   15  A    between atoms: _45  and  _47
REMARK   16  A    between atoms: _47  and  _48
REMARK   17  A    between atoms: _47  and  _50
REMARK   18  A    between atoms: _50  and  _51
REMARK   19  A    between atoms: _53  and  _55
REMARK   20  A    between atoms: _55  and  _56
REMARK   21  A    between atoms: _55  and  _58
REMARK   22  A    between atoms: _58  and  _59
REMARK   23  A    between atoms: _65  and  _67
REMARK   24  A    between atoms: _67  and  _68
REMARK   25  A    between atoms: _67  and  _70
REMARK   26  A    between atoms: _70  and  _71
REMARK   27  A    between atoms: _73  and  _75
REMARK   28  A    between atoms: _75  and  _76
REMARK   29  A    between atoms: _78  and  _80
REMARK   30  A    between atoms: _80  and  _81
REMARK   31  A    between atoms: _83  and  _85
REMARK   32  A    between atoms: _85  and  _86
REMARK   33  A    between atoms: _85  and  _88
REMARK   34  A    between atoms: _88  and  _89
REMARK   35  A    between atoms: _99  and  _101
REMARK   36  A    between atoms: _101  and  _102
REMARK   37  A    between atoms: _101  and  _104
REMARK   38  A    between atoms: _104  and  _105
REMARK   39  A    between atoms: _110  and  _111
REMARK   40  A    between atoms: _113  and  _115
REMARK   41  A    between atoms: _115  and  _116
REMARK   42  A    between atoms: _115  and  _118
REMARK   43  A    between atoms: _118  and  _119
REMARK   44  A    between atoms: _124  and  _125
REMARK   45  A    between atoms: _127  and  _129
REMARK   46  A    between atoms: _129  and  _130
REMARK   47  A    between atoms: _129  and  _132
REMARK   48  A    between atoms: _132  and  _133
REMARK   49  A    between atoms: _135  and  _137
REMARK   50  A    between atoms: _137  and  _138
REMARK   51  A    between atoms: _137  and  _140
REMARK   52  A    between atoms: _140  and  _141
REMARK   53  A    between atoms: _146  and  _148
REMARK   54  A    between atoms: _148  and  _149
REMARK   55  A    between atoms: _148  and  _151
REMARK   56  A    between atoms: _151  and  _152
REMARK   57  A    between atoms: _155  and  _157
REMARK   58  A    between atoms: _157  and  _158
REMARK   59  A    between atoms: _157  and  _160
REMARK   60  A    between atoms: _160  and  _161
REMARK   61  A    between atoms: _164  and  _166
REMARK   62  A    between atoms: _166  and  _167
REMARK   63  A    between atoms: _166  and  _169
REMARK   64  A    between atoms: _169  and  _170
REMARK   65  A    between atoms: _175  and  _177
REMARK   66  A    between atoms: _177  and  _178
REMARK   67  A    between atoms: _177  and  _180
REMARK   68  A    between atoms: _180  and  _181
REMARK   69  A    between atoms: _191  and  _193
REMARK   70  A    between atoms: _193  and  _194
REMARK   71  A    between atoms: _193  and  _196
REMARK   72  A    between atoms: _196  and  _197
REMARK   73  A    between atoms: _197  and  _198
REMARK   74  A    between atoms: _201  and  _203
REMARK   75  A    between atoms: _203  and  _204
REMARK   76  A    between atoms: _203  and  _206
REMARK   77  A    between atoms: _206  and  _207
REMARK   78  A    between atoms: _212  and  _213
REMARK   79  A    between atoms: _215  and  _217
REMARK   80  A    between atoms: _217  and  _218
REMARK   81  A    between atoms: _217  and  _220
REMARK   82  A    between atoms: _220  and  _221
REMARK   83  A    between atoms: _224  and  _226
REMARK   84  A    between atoms: _226  and  _227
REMARK   85  A    between atoms: _230  and  _232
REMARK   86  A    between atoms: _232  and  _233
REMARK   87  A    between atoms: _235  and  _237
REMARK   88  A    between atoms: _237  and  _238
REMARK   89  A    between atoms: _241  and  _243
REMARK   90  A    between atoms: _243  and  _244
REMARK   91  A    between atoms: _246  and  _248
REMARK   92  A    between atoms: _248  and  _249
REMARK   93  A    between atoms: _251  and  _253
REMARK   94  A    between atoms: _253  and  _254
REMARK   95  A    between atoms: _253  and  _256
REMARK   96  A    between atoms: _256  and  _257
REMARK   97  A    between atoms: _263  and  _265
REMARK   98  A    between atoms: _265  and  _266
REMARK   99  A    between atoms: _265  and  _268
REMARK  100  A    between atoms: _268  and  _269
REMARK  101  A    between atoms: _275  and  _277
REMARK  102  A    between atoms: _277  and  _278
REMARK  103  A    between atoms: _277  and  _280
REMARK  104  A    between atoms: _280  and  _281
REMARK  105  A    between atoms: _281  and  _282
REMARK  106  A    between atoms: _282  and  _283
REMARK  107  A    between atoms: _292  and  _294
REMARK  108  A    between atoms: _294  and  _295
REMARK  109  A    between atoms: _294  and  _297
REMARK  110  A    between atoms: _297  and  _298
REMARK  111  A    between atoms: _303  and  _305
REMARK  112  A    between atoms: _305  and  _306
REMARK  113  A    between atoms: _305  and  _308
REMARK  114  A    between atoms: _308  and  _309
REMARK  115  A    between atoms: _312  and  _314
REMARK  116  A    between atoms: _314  and  _315
REMARK  117  A    between atoms: _314  and  _317
REMARK  118  A    between atoms: _317  and  _318
REMARK  119  A    between atoms: _318  and  _319
REMARK  120  A    between atoms: _321  and  _323
REMARK  121  A    between atoms: _323  and  _324
REMARK  122  A    between atoms: _323  and  _326
REMARK  123  A    between atoms: _326  and  _327
REMARK  124  A    between atoms: _330  and  _332
REMARK  125  A    between atoms: _332  and  _333
REMARK  126  A    between atoms: _332  and  _335
REMARK  127  A    between atoms: _335  and  _336
REMARK  128  A    between atoms: _341  and  _342
REMARK  129  A    between atoms: _344  and  _346
REMARK  130  A    between atoms: _346  and  _347
REMARK  131  A    between atoms: _346  and  _349
REMARK  132  A    between atoms: _349  and  _350
REMARK  133  A    between atoms: _353  and  _355
REMARK  134  A    between atoms: _355  and  _356
REMARK  135  A    between atoms: _355  and  _358
REMARK  136  A    between atoms: _358  and  _359
REMARK  137  A    between atoms: _362  and  _364
REMARK  138  A    between atoms: _364  and  _365
REMARK  139  A    between atoms: _368  and  _370
REMARK  140  A    between atoms: _370  and  _371
REMARK  141  A    between atoms: _373  and  _375
REMARK  142  A    between atoms: _375  and  _376
REMARK  143  A    between atoms: _375  and  _378
REMARK  144  A    between atoms: _378  and  _379
REMARK  145  A    between atoms: _389  and  _391
REMARK  146  A    between atoms: _391  and  _392
REMARK  147  A    between atoms: _391  and  _394
REMARK  148  A    between atoms: _394  and  _395
REMARK  149  A    between atoms: _395  and  _396
REMARK  150  A    between atoms: _399  and  _401
REMARK  151  A    between atoms: _401  and  _402
REMARK  152  A    between atoms: _401  and  _404
REMARK  153  A    between atoms: _404  and  _405
REMARK  154  A    between atoms: _405  and  _406
REMARK  155  A    between atoms: _411  and  _413
REMARK  156  A    between atoms: _413  and  _414
REMARK  157  A    between atoms: _413  and  _416
REMARK  158  A    between atoms: _420  and  _421
REMARK  159  A    between atoms: _426  and  _428
REMARK  160  A    between atoms: _428  and  _429
REMARK  161  A    between atoms: _428  and  _431
REMARK  162  A    between atoms: _431  and  _432
REMARK  163  A    between atoms: _438  and  _440
REMARK  164  A    between atoms: _440  and  _441
REMARK  165  A    between atoms: _440  and  _443
REMARK  166  A    between atoms: _443  and  _444
REMARK  167  A    between atoms: _449  and  _450
REMARK  168  A    between atoms: _452  and  _454
REMARK  169  A    between atoms: _454  and  _455
REMARK  170  A    between atoms: _457  and  _459
REMARK  171  A    between atoms: _459  and  _460
REMARK  172  A    between atoms: _459  and  _462
REMARK  173  A    between atoms: _462  and  _463
REMARK  174  A    between atoms: _463  and  _464
REMARK  175  A    between atoms: _464  and  _465
REMARK  176  A    between atoms: _474  and  _476
REMARK  177  A    between atoms: _476  and  _477
REMARK  178  A    between atoms: _476  and  _479
REMARK  179  A    between atoms: _479  and  _480
REMARK  180  A    between atoms: _483  and  _485
REMARK  181  A    between atoms: _485  and  _486
REMARK  182  A    between atoms: _485  and  _488
REMARK  183  A    between atoms: _488  and  _489
REMARK  184  A    between atoms: _492  and  _494
REMARK  185  A    between atoms: _494  and  _495
REMARK  186  A    between atoms: _494  and  _497
REMARK  187  A    between atoms: _497  and  _498
REMARK  188  A    between atoms: _501  and  _503
REMARK  189  A    between atoms: _503  and  _504
REMARK  190  A    between atoms: _503  and  _506
REMARK  191  A    between atoms: _506  and  _507
REMARK  192  A    between atoms: _507  and  _508
REMARK  193  A    between atoms: _508  and  _509
REMARK  194  A    between atoms: _518  and  _520
REMARK  195  A    between atoms: _520  and  _521
REMARK  196  A    between atoms: _520  and  _523
REMARK  197  A    between atoms: _523  and  _524
REMARK  198  A    between atoms: _527  and  _529
REMARK  199  A    between atoms: _529  and  _530
REMARK  200  A    between atoms: _533  and  _535
REMARK  201  A    between atoms: _535  and  _536
REMARK  202  A    between atoms: _535  and  _538
REMARK  203  A    between atoms: _538  and  _539
REMARK  204  A    between atoms: _541  and  _543
REMARK  205  A    between atoms: _543  and  _544
REMARK  206  A    between atoms: _543  and  _546
REMARK  207  A    between atoms: _546  and  _547
REMARK  208  A    between atoms: _547  and  _548
REMARK  209  A    between atoms: _550  and  _552
REMARK  210  A    between atoms: _552  and  _553
REMARK  211  A    between atoms: _552  and  _555
REMARK  212  A    between atoms: _555  and  _556
REMARK  213  A    between atoms: _562  and  _564
REMARK  214  A    between atoms: _564  and  _565
REMARK  215  A    between atoms: _564  and  _567
REMARK  216  A    between atoms: _567  and  _568
REMARK  217  A    between atoms: _578  and  _580
REMARK  218  A    between atoms: _580  and  _581
REMARK  219  A    between atoms: _580  and  _583
REMARK  220  A    between atoms: _583  and  _584
REMARK  221  A    between atoms: _589  and  _591
REMARK  222  A    between atoms: _591  and  _592
REMARK  223  A    between atoms: _591  and  _594
REMARK  224  A    between atoms: _594  and  _595
REMARK  225  A    between atoms: _595  and  _596
REMARK                            x       y       z     vdW  Elec       q    Type
REMARK                         _______ _______ _______ _____ _____    ______ ____
ROOT
ATOM      1  CB  PHE A   1      14.081  42.680 109.116  0.00  0.00    +0.051 C 
ENDROOT
BRANCH   1   2
ATOM      2  CG  PHE A   1      13.132  41.806 108.318  0.00  0.00    -0.020 A 
ATOM      3  CD2 PHE A   1      13.299  40.424 108.291  0.00  0.00    -0.004 A 
ATOM      4  CE2 PHE A   1      12.431  39.605 107.525  0.00  0.00    -0.000 A 
ATOM      5  CZ  PHE A   1      11.406  40.183 106.800  0.00  0.00    -0.000 A 
ATOM      6  CE1 PHE A   1      11.236  41.579 106.829  0.00  0.00    -0.000 A 
ATOM      7  CD1 PHE A   1      12.097  42.369 107.584  0.00  0.00    -0.004 A 
ENDBRANCH   1   2
BRANCH   1   8
ATOM      8  CA  PHE A   1      13.453  43.309 110.371  0.00  0.00    +0.137 C 
BRANCH   8   9
ATOM      9  N   PHE A   1      14.492  43.978 111.148  0.00  0.00    -0.239 NA
ATOM     10  H   PHE A   1      15.381  43.480 111.357  0.00  0.00    +0.142 HD
ENDBRANCH   8   9
BRANCH   8  11
ATOM     11  C   PHE A   1      12.745  42.245 111.187  0.00  0.00    +0.224 C 
ATOM     12  O   PHE A   1      13.376  41.390 111.801  0.00  0.00    -0.287 OA
ENDBRANCH   8  11
ENDBRANCH   1   8
TORSDOF 4
REMARK  Name = ../refined-set-2016/1ur9/1ur9_pocket.pdb
REMARK  225 active torsions:
REMARK  status: ('A' for Active; 'I' for Inactive)
REMARK    1  A    between atoms: _1  and  _3
REMARK    2  A    between atoms: _3  and  _4
REMARK    3  A    between atoms: _3  and  _6
REMARK    4  A    between atoms: _6  and  _7
REMARK    5  A    between atoms: _12  and  _13
REMARK    6  A    between atoms: _15  and  _17
REMARK    7  A    between atoms: _17  and  _18
REMARK    8  A    between atoms: _17  and  _20
REMARK    9  A    between atoms: _20  and  _21
REMARK   10  A    between atoms: _28  and  _29
REMARK   11  A    between atoms: _34  and  _36
REMARK   12  A    between atoms: _36  and  _37
REMARK   13  A    between atoms: _36  and  _39
REMARK   14  A    between atoms: _39  and  _40
REMARK   15  A    between atoms: _45  and  _47
REMARK   16  A    between atoms: _47  and  _48
REMARK   17  A    between atoms: _47  and  _50
REMARK   18  A    between atoms: _50  and  _51
REMARK   19  A    between atoms: _53  and  _55
REMARK   20  A    between atoms: _55  and  _56
REMARK   21  A    between atoms: _55  and  _58
REMARK   22  A    between atoms: _58  and  _59
REMARK   23  A    between atoms: _65  and  _67
REMARK   24  A    between atoms: _67  and  _68
REMARK   25  A    between atoms: _67  and  _70
REMARK   26  A    between atoms: _70  and  _71
REMARK   27  A    between atoms: _73  and  _75
REMARK   28  A    between atoms: _75  and  _76
REMARK   29  A    between atoms: _78  and  _80
REMARK   30  A    between atoms: _80  and  _81
REMARK   31  A    between atoms: _83  and  _85
REMARK   32  A    between atoms: _85  and  _86
REMARK   33  A    between atoms: _85  and  _88
REMARK   34  A    between atoms: _88  and  _89
REMARK   35  A    between atoms: _99  and  _101
REMARK   36  A    between atoms: _101  and  _102
REMARK   37  A    between atoms: _101  and  _104
REMARK   38  A    between atoms: _104  and  _105
REMARK   39  A    between atoms: _110  and  _111
REMARK   40  A    between atoms: _113  and  _115
REMARK   41  A    between atoms: _115  and  _116
REMARK   42  A    between atoms: _115  and  _118
REMARK   43  A    between atoms: _118  and  _119
REMARK   44  A    between atoms: _124  and  _125
REMARK   45  A    between atoms: _127  and  _129
REMARK   46  A    between atoms: _129  and  _130
REMARK   47  A    between atoms: _129  and  _132
REMARK   48  A    between atoms: _132  and  _133
REMARK   49  A    between atoms: _135  and  _137
REMARK   50  A    between atoms: _137  and  _138
REMARK   51  A    between atoms: _137  and  _140
REMARK   52  A    between atoms: _140  and  _141
REMARK   53  A    between atoms: _146  and  _148
REMARK   54  A    between atoms: _148  and  _149
REMARK   55  A    between atoms: _148  and  _151
REMARK   56  A    between atoms: _151  and  _152
REMARK   57  A    between atoms: _155  and  _157
REMARK   58  A    between atoms: _157  and  _158
REMARK   59  A    between atoms: _157  and  _160
REMARK   60  A    between atoms: _160  and  _161
REMARK   61  A    between atoms: _164  and  _166
REMARK   62  A    between atoms: _166  and  _167
REMARK   63  A    between atoms: _166  and  _169
REMARK   64  A    between atoms: _169  and  _170
REMARK   65  A    between atoms: _175  and  _177
REMARK   66  A    between atoms: _177  and  _178
REMARK   67  A    between atoms: _177  and  _180
REMARK   68  A    between atoms: _180  and  _181
REMARK   69  A    between atoms: _191  and  _193
REMARK   70  A    between atoms: _193  and  _194
REMARK   71  A    between atoms: _193  and  _196
REMARK   72  A    between atoms: _196  and  _197
REMARK   73  A    between atoms: _197  and  _198
REMARK   74  A    between atoms: _201  and  _203
REMARK   75  A    between atoms: _203  and  _204
REMARK   76  A    between atoms: _203  and  _206
REMARK   77  A    between atoms: _206  and  _207
REMARK   78  A    between atoms: _212  and  _213
REMARK   79  A    between atoms: _215  and  _217
REMARK   80  A    between atoms: _217  and  _218
REMARK   81  A    between atoms: _217  and  _220
REMARK   82  A    between atoms: _220  and  _221
REMARK   83  A    between atoms: _224  and  _226
REMARK   84  A    between atoms: _226  and  _227
REMARK   85  A    between atoms: _230  and  _232
REMARK   86  A    between atoms: _232  and  _233
REMARK   87  A    between atoms: _235  and  _237
REMARK   88  A    between atoms: _237  and  _238
REMARK   89  A    between atoms: _241  and  _243
REMARK   90  A    between atoms: _243  and  _244
REMARK   91  A    between atoms: _246  and  _248
REMARK   92  A    between atoms: _248  and  _249
REMARK   93  A    between atoms: _251  and  _253
REMARK   94  A    between atoms: _253  and  _254
REMARK   95  A    between atoms: _253  and  _256
REMARK   96  A    between atoms: _256  and  _257
REMARK   97  A    between atoms: _263  and  _265
REMARK   98  A    between atoms: _265  and  _266
REMARK   99  A    between atoms: _265  and  _268
REMARK  100  A    between atoms: _268  and  _269
REMARK  101  A    between atoms: _275  and  _277
REMARK  102  A    between atoms: _277  and  _278
REMARK  103  A    between atoms: _277  and  _280
REMARK  104  A    between atoms: _280  and  _281
REMARK  105  A    between atoms: _281  and  _282
REMARK  106  A    between atoms: _282  and  _283
REMARK  107  A    between atoms: _292  and  _294
REMARK  108  A    between atoms: _294  and  _295
REMARK  109  A    between atoms: _294  and  _297
REMARK  110  A    between atoms: _297  and  _298
REMARK  111  A    between atoms: _303  and  _305
REMARK  112  A    between atoms: _305  and  _306
REMARK  113  A    between atoms: _305  and  _308
REMARK  114  A    between atoms: _308  and  _309
REMARK  115  A    between atoms: _312  and  _314
REMARK  116  A    between atoms: _314  and  _315
REMARK  117  A    between atoms: _314  and  _317
REMARK  118  A    between atoms: _317  and  _318
REMARK  119  A    between atoms: _318  and  _319
REMARK  120  A    between atoms: _321  and  _323
REMARK  121  A    between atoms: _323  and  _324
REMARK  122  A    between atoms: _323  and  _326
REMARK  123  A    between atoms: _326  and  _327
REMARK  124  A    between atoms: _330  and  _332
REMARK  125  A    between atoms: _332  and  _333
REMARK  126  A    between atoms: _332  and  _335
REMARK  127  A    between atoms: _335  and  _336
REMARK  128  A    between atoms: _341  and  _342
REMARK  129  A    between atoms: _344  and  _346
REMARK  130  A    between atoms: _346  and  _347
REMARK  131  A    between atoms: _346  and  _349
REMARK  132  A    between atoms: _349  and  _350
REMARK  133  A    between atoms: _353  and  _355
REMARK  134  A    between atoms: _355  and  _356
REMARK  135  A    between atoms: _355  and  _358
REMARK  136  A    between atoms: _358  and  _359
REMARK  137  A    between atoms: _362  and  _364
REMARK  138  A    between atoms: _364  and  _365
REMARK  139  A    between atoms: _368  and  _370
REMARK  140  A    between atoms: _370  and  _371
REMARK  141  A    between atoms: _373  and  _375
REMARK  142  A    between atoms: _375  and  _376
REMARK  143  A    between atoms: _375  and  _378
REMARK  144  A    between atoms: _378  and  _379
REMARK  145  A    between atoms: _389  and  _391
REMARK  146  A    between atoms: _391  and  _392
REMARK  147  A    between atoms: _391  and  _394
REMARK  148  A    between atoms: _394  and  _395
REMARK  149  A    between atoms: _395  and  _396
REMARK  150  A    between atoms: _399  and  _401
REMARK  151  A    between atoms: _401  and  _402
REMARK  152  A    between atoms: _401  and  _404
REMARK  153  A    between atoms: _404  and  _405
REMARK  154  A    between atoms: _405  and  _406
REMARK  155  A    between atoms: _411  and  _413
REMARK  156  A    between atoms: _413  and  _414
REMARK  157  A    between atoms: _413  and  _416
REMARK  158  A    between atoms: _420  and  _421
REMARK  159  A    between atoms: _426  and  _428
REMARK  160  A    between atoms: _428  and  _429
REMARK  161  A    between atoms: _428  and  _431
REMARK  162  A    between atoms: _431  and  _432
REMARK  163  A    between atoms: _438  and  _440
REMARK  164  A    between atoms: _440  and  _441
REMARK  165  A    between atoms: _440  and  _443
REMARK  166  A    between atoms: _443  and  _444
REMARK  167  A    between atoms: _449  and  _450
REMARK  168  A    between atoms: _452  and  _454
REMARK  169  A    between atoms: _454  and  _455
REMARK  170  A    between atoms: _457  and  _459
REMARK  171  A    between atoms: _459  and  _460
REMARK  172  A    between atoms: _459  and  _462
REMARK  173  A    between atoms: _462  and  _463
REMARK  174  A    between atoms: _463  and  _464
REMARK  175  A    between atoms: _464  and  _465
REMARK  176  A    between atoms: _474  and  _476
REMARK  177  A    between atoms: _476  and  _477
REMARK  178  A    between atoms: _476  and  _479
REMARK  179  A    between atoms: _479  and  _480
REMARK  180  A    between atoms: _483  and  _485
REMARK  181  A    between atoms: _485  and  _486
REMARK  182  A    between atoms: _485  and  _488
REMARK  183  A    between atoms: _488  and  _489
REMARK  184  A    between atoms: _492  and  _494
REMARK  185  A    between atoms: _494  and  _495
REMARK  186  A    between atoms: _494  and  _497
REMARK  187  A    between atoms: _497  and  _498
REMARK  188  A    between atoms: _501  and  _503
REMARK  189  A    between atoms: _503  and  _504
REMARK  190  A    between atoms: _503  and  _506
REMARK  191  A    between atoms: _506  and  _507
REMARK  192  A    between atoms: _507  and  _508
REMARK  193  A    between atoms: _508  and  _509
REMARK  194  A    between atoms: _518  and  _520
REMARK  195  A    between atoms: _520  and  _521
REMARK  196  A    between atoms: _520  and  _523
REMARK  197  A    between atoms: _523  and  _524
REMARK  198  A    between atoms: _527  and  _529
REMARK  199  A    between atoms: _529  and  _530
REMARK  200  A    between atoms: _533  and  _535
REMARK  201  A    between atoms: _535  and  _536
REMARK  202  A    between atoms: _535  and  _538
REMARK  203  A    between atoms: _538  and  _539
REMARK  204  A    between atoms: _541  and  _543
REMARK  205  A    between atoms: _543  and  _544
REMARK  206  A    between atoms: _543  and  _546
REMARK  207  A    between atoms: _546  and  _547
REMARK  208  A    between atoms: _547  and  _548
REMARK  209  A    between atoms: _550  and  _552
REMARK  210  A    between atoms: _552  and  _553
REMARK  211  A    between atoms: _552  and  _555
REMARK  212  A    between atoms: _555  and  _556
REMARK  213  A    between atoms: _562  and  _564
REMARK  214  A    between atoms: _564  and  _565
REMARK  215  A    between atoms: _564  and  _567
REMARK  216  A    between atoms: _567  and  _568
REMARK  217  A    between atoms: _578  and  _580
REMARK  218  A    between atoms: _580  and  _581
REMARK  219  A    between atoms: _580  and  _583
REMARK  220  A    between atoms: _583  and  _584
REMARK  221  A    between atoms: _589  and  _591
REMARK  222  A    between atoms: _591  and  _592
REMARK  223  A    between atoms: _591  and  _594
REMARK  224  A    between atoms: _594  and  _595
REMARK  225  A    between atoms: _595  and  _596
REMARK                            x       y       z     vdW  Elec       q    Type
REMARK                         _______ _______ _______ _____ _____    ______ ____
ROOT
ATOM      1  N   PRO A   1       9.469  39.774 110.476  0.00  0.00    -0.212 NA
ATOM      2  CD  PRO A   1      10.416  38.688 110.772  0.00  0.00    +0.089 C 
ATOM      3  CG  PRO A   1       9.608  37.464 110.395  0.00  0.00    +0.021 C 
ATOM      4  CB  PRO A   1       8.855  37.899 109.195  0.00  0.00    +0.027 C 
ATOM      5  CA  PRO A   1       8.425  39.327 109.545  0.00  0.00    +0.137 C 
ENDROOT
BRANCH   5   6
ATOM      6  C   PRO A   1       7.013  39.397 110.108  0.00  0.00    +0.224 C 
ATOM      7  O   PRO A   1       6.813  39.336 111.314  0.00  0.00    -0.287 OA
ENDBRANCH   5   6
TORSDOF 1
REMARK  Name = ../refined-set-2016/1ur9/1ur9_pocket.pdb
REMARK  225 active torsions:
REMARK  status: ('A' for Active; 'I' for Inactive)
REMARK    1  A    between atoms: _1  and  _3
REMARK    2  A    between atoms: _3  and  _4
REMARK    3  A    between atoms: _3  and  _6
REMARK    4  A    between atoms: _6  and  _7
REMARK    5  A    between atoms: _12  and  _13
REMARK    6  A    between atoms: _15  and  _17
REMARK    7  A    between atoms: _17  and  _18
REMARK    8  A    between atoms: _17  and  _20
REMARK    9  A    between atoms: _20  and  _21
REMARK   10  A    between atoms: _28  and  _29
REMARK   11  A    between atoms: _34  and  _36
REMARK   12  A    between atoms: _36  and  _37
REMARK   13  A    between atoms: _36  and  _39
REMARK   14  A    between atoms: _39  and  _40
REMARK   15  A    between atoms: _45  and  _47
REMARK   16  A    between atoms: _47  and  _48
REMARK   17  A    between atoms: _47  and  _50
REMARK   18  A    between atoms: _50  and  _51
REMARK   19  A    between atoms: _53  and  _55
REMARK   20  A    between atoms: _55  and  _56
REMARK   21  A    between atoms: _55  and  _58
REMARK   22  A    between atoms: _58  and  _59
REMARK   23  A    between atoms: _65  and  _67
REMARK   24  A    between atoms: _67  and  _68
REMARK   25  A    between atoms: _67  and  _70
REMARK   26  A    between atoms: _70  and  _71
REMARK   27  A    between atoms: _73  and  _75
REMARK   28  A    between atoms: _75  and  _76
REMARK   29  A    between atoms: _78  and  _80
REMARK   30  A    between atoms: _80  and  _81
REMARK   31  A    between atoms: _83  and  _85
REMARK   32  A    between atoms: _85  and  _86
REMARK   33  A    between atoms: _85  and  _88
REMARK   34  A    between atoms: _88  and  _89
REMARK   35  A    between atoms: _99  and  _101
REMARK   36  A    between atoms: _101  and  _102
REMARK   37  A    between atoms: _101  and  _104
REMARK   38  A    between atoms: _104  and  _105
REMARK   39  A    between atoms: _110  and  _111
REMARK   40  A    between atoms: _113  and  _115
REMARK   41  A    between atoms: _115  and  _116
REMARK   42  A    between atoms: _115  and  _118
REMARK   43  A    between atoms: _118  and  _119
REMARK   44  A    between atoms: _124  and  _125
REMARK   45  A    between atoms: _127  and  _129
REMARK   46  A    between atoms: _129  and  _130
REMARK   47  A    between atoms: _129  and  _132
REMARK   48  A    between atoms: _132  and  _133
REMARK   49  A    between atoms: _135  and  _137
REMARK   50  A    between atoms: _137  and  _138
REMARK   51  A    between atoms: _137  and  _140
REMARK   52  A    between atoms: _140  and  _141
REMARK   53  A    between atoms: _146  and  _148
REMARK   54  A    between atoms: _148  and  _149
REMARK   55  A    between atoms: _148  and  _151
REMARK   56  A    between atoms: _151  and  _152
REMARK   57  A    between atoms: _155  and  _157
REMARK   58  A    between atoms: _157  and  _158
REMARK   59  A    between atoms: _157  and  _160
REMARK   60  A    between atoms: _160  and  _161
REMARK   61  A    between atoms: _164  and  _166
REMARK   62  A    between atoms: _166  and  _167
REMARK   63  A    between atoms: _166  and  _169
REMARK   64  A    between atoms: _169  and  _170
REMARK   65  A    between atoms: _175  and  _177
REMARK   66  A    between atoms: _177  and  _178
REMARK   67  A    between atoms: _177  and  _180
REMARK   68  A    between atoms: _180  and  _181
REMARK   69  A    between atoms: _191  and  _193
REMARK   70  A    between atoms: _193  and  _194
REMARK   71  A    between atoms: _193  and  _196
REMARK   72  A    between atoms: _196  and  _197
REMARK   73  A    between atoms: _197  and  _198
REMARK   74  A    between atoms: _201  and  _203
REMARK   75  A    between atoms: _203  and  _204
REMARK   76  A    between atoms: _203  and  _206
REMARK   77  A    between atoms: _206  and  _207
REMARK   78  A    between atoms: _212  and  _213
REMARK   79  A    between atoms: _215  and  _217
REMARK   80  A    between atoms: _217  and  _218
REMARK   81  A    between atoms: _217  and  _220
REMARK   82  A    between atoms: _220  and  _221
REMARK   83  A    between atoms: _224  and  _226
REMARK   84  A    between atoms: _226  and  _227
REMARK   85  A    between atoms: _230  and  _232
REMARK   86  A    between atoms: _232  and  _233
REMARK   87  A    between atoms: _235  and  _237
REMARK   88  A    between atoms: _237  and  _238
REMARK   89  A    between atoms: _241  and  _243
REMARK   90  A    between atoms: _243  and  _244
REMARK   91  A    between atoms: _246  and  _248
REMARK   92  A    between atoms: _248  and  _249
REMARK   93  A    between atoms: _251  and  _253
REMARK   94  A    between atoms: _253  and  _254
REMARK   95  A    between atoms: _253  and  _256
REMARK   96  A    between atoms: _256  and  _257
REMARK   97  A    between atoms: _263  and  _265
REMARK   98  A    between atoms: _265  and  _266
REMARK   99  A    between atoms: _265  and  _268
REMARK  100  A    between atoms: _268  and  _269
REMARK  101  A    between atoms: _275  and  _277
REMARK  102  A    between atoms: _277  and  _278
REMARK  103  A    between atoms: _277  and  _280
REMARK  104  A    between atoms: _280  and  _281
REMARK  105  A    between atoms: _281  and  _282
REMARK  106  A    between atoms: _282  and  _283
REMARK  107  A    between atoms: _292  and  _294
REMARK  108  A    between atoms: _294  and  _295
REMARK  109  A    between atoms: _294  and  _297
REMARK  110  A    between atoms: _297  and  _298
REMARK  111  A    between atoms: _303  and  _305
REMARK  112  A    between atoms: _305  and  _306
REMARK  113  A    between atoms: _305  and  _308
REMARK  114  A    between atoms: _308  and  _309
REMARK  115  A    between atoms: _312  and  _314
REMARK  116  A    between atoms: _314  and  _315
REMARK  117  A    between atoms: _314  and  _317
REMARK  118  A    between atoms: _317  and  _318
REMARK  119  A    between atoms: _318  and  _319
REMARK  120  A    between atoms: _321  and  _323
REMARK  121  A    between atoms: _323  and  _324
REMARK  122  A    between atoms: _323  and  _326
REMARK  123  A    between atoms: _326  and  _327
REMARK  124  A    between atoms: _330  and  _332
REMARK  125  A    between atoms: _332  and  _333
REMARK  126  A    between atoms: _332  and  _335
REMARK  127  A    between atoms: _335  and  _336
REMARK  128  A    between atoms: _341  and  _342
REMARK  129  A    between atoms: _344  and  _346
REMARK  130  A    between atoms: _346  and  _347
REMARK  131  A    between atoms: _346  and  _349
REMARK  132  A    between atoms: _349  and  _350
REMARK  133  A    between atoms: _353  and  _355
REMARK  134  A    between atoms: _355  and  _356
REMARK  135  A    between atoms: _355  and  _358
REMARK  136  A    between atoms: _358  and  _359
REMARK  137  A    between atoms: _362  and  _364
REMARK  138  A    between atoms: _364  and  _365
REMARK  139  A    between atoms: _368  and  _370
REMARK  140  A    between atoms: _370  and  _371
REMARK  141  A    between atoms: _373  and  _375
REMARK  142  A    between atoms: _375  and  _376
REMARK  143  A    between atoms: _375  and  _378
REMARK  144  A    between atoms: _378  and  _379
REMARK  145  A    between atoms: _389  and  _391
REMARK  146  A    between atoms: _391  and  _392
REMARK  147  A    between atoms: _391  and  _394
REMARK  148  A    between atoms: _394  and  _395
REMARK  149  A    between atoms: _395  and  _396
REMARK  150  A    between atoms: _399  and  _401
REMARK  151  A    between atoms: _401  and  _402
REMARK  152  A    between atoms: _401  and  _404
REMARK  153  A    between atoms: _404  and  _405
REMARK  154  A    between atoms: _405  and  _406
REMARK  155  A    between atoms: _411  and  _413
REMARK  156  A    between atoms: _413  and  _414
REMARK  157  A    between atoms: _413  and  _416
REMARK  158  A    between atoms: _420  and  _421
REMARK  159  A    between atoms: _426  and  _428
REMARK  160  A    between atoms: _428  and  _429
REMARK  161  A    between atoms: _428  and  _431
REMARK  162  A    between atoms: _431  and  _432
REMARK  163  A    between atoms: _438  and  _440
REMARK  164  A    between atoms: _440  and  _441
REMARK  165  A    between atoms: _440  and  _443
REMARK  166  A    between atoms: _443  and  _444
REMARK  167  A    between atoms: _449  and  _450
REMARK  168  A    between atoms: _452  and  _454
REMARK  169  A    between atoms: _454  and  _455
REMARK  170  A    between atoms: _457  and  _459
REMARK  171  A    between atoms: _459  and  _460
REMARK  172  A    between atoms: _459  and  _462
REMARK  173  A    between atoms: _462  and  _463
REMARK  174  A    between atoms: _463  and  _464
REMARK  175  A    between atoms: _464  and  _465
REMARK  176  A    between atoms: _474  and  _476
REMARK  177  A    between atoms: _476  and  _477
REMARK  178  A    between atoms: _476  and  _479
REMARK  179  A    between atoms: _479  and  _480
REMARK  180  A    between atoms: _483  and  _485
REMARK  181  A    between atoms: _485  and  _486
REMARK  182  A    between atoms: _485  and  _488
REMARK  183  A    between atoms: _488  and  _489
REMARK  184  A    between atoms: _492  and  _494
REMARK  185  A    between atoms: _494  and  _495
REMARK  186  A    between atoms: _494  and  _497
REMARK  187  A    between atoms: _497  and  _498
REMARK  188  A    between atoms: _501  and  _503
REMARK  189  A    between atoms: _503  and  _504
REMARK  190  A    between atoms: _503  and  _506
REMARK  191  A    between atoms: _506  and  _507
REMARK  192  A    between atoms: _507  and  _508
REMARK  193  A    between atoms: _508  and  _509
REMARK  194  A    between atoms: _518  and  _520
REMARK  195  A    between atoms: _520  and  _521
REMARK  196  A    between atoms: _520  and  _523
REMARK  197  A    between atoms: _523  and  _524
REMARK  198  A    between atoms: _527  and  _529
REMARK  199  A    between atoms: _529  and  _530
REMARK  200  A    between atoms: _533  and  _535
REMARK  201  A    between atoms: _535  and  _536
REMARK  202  A    between atoms: _535  and  _538
REMARK  203  A    between atoms: _538  and  _539
REMARK  204  A    between atoms: _541  and  _543
REMARK  205  A    between atoms: _543  and  _544
REMARK  206  A    between atoms: _543  and  _546
REMARK  207  A    between atoms: _546  and  _547
REMARK  208  A    between atoms: _547  and  _548
REMARK  209  A    between atoms: _550  and  _552
REMARK  210  A    between atoms: _552  and  _553
REMARK  211  A    between atoms: _552  and  _555
REMARK  212  A    between atoms: _555  and  _556
REMARK  213  A    between atoms: _562  and  _564
REMARK  214  A    between atoms: _564  and  _565
REMARK  215  A    between atoms: _564  and  _567
REMARK  216  A    between atoms: _567  and  _568
REMARK  217  A    between atoms: _578  and  _580
REMARK  218  A    between atoms: _580  and  _581
REMARK  219  A    between atoms: _580  and  _583
REMARK  220  A    between atoms: _583  and  _584
REMARK  221  A    between atoms: _589  and  _591
REMARK  222  A    between atoms: _591  and  _592
REMARK  223  A    between atoms: _591  and  _594
REMARK  224  A    between atoms: _594  and  _595
REMARK  225  A    between atoms: _595  and  _596
REMARK                            x       y       z     vdW  Elec       q    Type
REMARK                         _______ _______ _______ _____ _____    ______ ____
ROOT
ATOM      1  CB  ASN A   1      15.621  51.243 109.339  0.00  0.00    +0.110 C 
ENDROOT
BRANCH   1   2
ATOM      2  CG  ASN A   1      16.336  52.529 108.982  0.00  0.00    +0.221 C 
ATOM      3  OD1 ASN A   1      16.179  53.545 109.651  0.00  0.00    -0.275 OA
ATOM      4  ND2 ASN A   1      17.134  52.484 107.905  0.00  0.00    -0.329 N 
ATOM      5 HD21 ASN A   1      17.652  53.335 107.606  0.00  0.00    +0.145 HD
ATOM      6 HD22 ASN A   1      17.235  51.598 107.369  0.00  0.00    +0.145 HD
ENDBRANCH   1   2
BRANCH   1   7
ATOM      7  CA  ASN A   1      14.860  51.332 110.660  0.00  0.00    +0.142 C 
BRANCH   7   8
ATOM      8  N   ASN A   1      15.760  51.296 111.809  0.00  0.00    -0.239 NA
ATOM      9  H   ASN A   1      16.622  50.714 111.782  0.00  0.00    +0.142 HD
ENDBRANCH   7   8
BRANCH   7  10
ATOM     10  C   ASN A   1      13.949  50.132 110.766  0.00  0.00    +0.225 C 
ATOM     11  O   ASN A   1      14.317  49.024 110.362  0.00  0.00    -0.287 OA
ENDBRANCH   7  10
ENDBRANCH   1   7
TORSDOF 4
REMARK  Name = ../refined-set-2016/1ur9/1ur9_pocket.pdb
REMARK  225 active torsions:
REMARK  status: ('A' for Active; 'I' for Inactive)
REMARK    1  A    between atoms: _1  and  _3
REMARK    2  A    between atoms: _3  and  _4
REMARK    3  A    between atoms: _3  and  _6
REMARK    4  A    between atoms: _6  and  _7
REMARK    5  A    between atoms: _12  and  _13
REMARK    6  A    between atoms: _15  and  _17
REMARK    7  A    between atoms: _17  and  _18
REMARK    8  A    between atoms: _17  and  _20
REMARK    9  A    between atoms: _20  and  _21
REMARK   10  A    between atoms: _28  and  _29
REMARK   11  A    between atoms: _34  and  _36
REMARK   12  A    between atoms: _36  and  _37
REMARK   13  A    between atoms: _36  and  _39
REMARK   14  A    between atoms: _39  and  _40
REMARK   15  A    between atoms: _45  and  _47
REMARK   16  A    between atoms: _47  and  _48
REMARK   17  A    between atoms: _47  and  _50
REMARK   18  A    between atoms: _50  and  _51
REMARK   19  A    between atoms: _53  and  _55
REMARK   20  A    between atoms: _55  and  _56
REMARK   21  A    between atoms: _55  and  _58
REMARK   22  A    between atoms: _58  and  _59
REMARK   23  A    between atoms: _65  and  _67
REMARK   24  A    between atoms: _67  and  _68
REMARK   25  A    between atoms: _67  and  _70
REMARK   26  A    between atoms: _70  and  _71
REMARK   27  A    between atoms: _73  and  _75
REMARK   28  A    between atoms: _75  and  _76
REMARK   29  A    between atoms: _78  and  _80
REMARK   30  A    between atoms: _80  and  _81
REMARK   31  A    between atoms: _83  and  _85
REMARK   32  A    between atoms: _85  and  _86
REMARK   33  A    between atoms: _85  and  _88
REMARK   34  A    between atoms: _88  and  _89
REMARK   35  A    between atoms: _99  and  _101
REMARK   36  A    between atoms: _101  and  _102
REMARK   37  A    between atoms: _101  and  _104
REMARK   38  A    between atoms: _104  and  _105
REMARK   39  A    between atoms: _110  and  _111
REMARK   40  A    between atoms: _113  and  _115
REMARK   41  A    between atoms: _115  and  _116
REMARK   42  A    between atoms: _115  and  _118
REMARK   43  A    between atoms: _118  and  _119
REMARK   44  A    between atoms: _124  and  _125
REMARK   45  A    between atoms: _127  and  _129
REMARK   46  A    between atoms: _129  and  _130
REMARK   47  A    between atoms: _129  and  _132
REMARK   48  A    between atoms: _132  and  _133
REMARK   49  A    between atoms: _135  and  _137
REMARK   50  A    between atoms: _137  and  _138
REMARK   51  A    between atoms: _137  and  _140
REMARK   52  A    between atoms: _140  and  _141
REMARK   53  A    between atoms: _146  and  _148
REMARK   54  A    between atoms: _148  and  _149
REMARK   55  A    between atoms: _148  and  _151
REMARK   56  A    between atoms: _151  and  _152
REMARK   57  A    between atoms: _155  and  _157
REMARK   58  A    between atoms: _157  and  _158
REMARK   59  A    between atoms: _157  and  _160
REMARK   60  A    between atoms: _160  and  _161
REMARK   61  A    between atoms: _164  and  _166
REMARK   62  A    between atoms: _166  and  _167
REMARK   63  A    between atoms: _166  and  _169
REMARK   64  A    between atoms: _169  and  _170
REMARK   65  A    between atoms: _175  and  _177
REMARK   66  A    between atoms: _177  and  _178
REMARK   67  A    between atoms: _177  and  _180
REMARK   68  A    between atoms: _180  and  _181
REMARK   69  A    between atoms: _191  and  _193
REMARK   70  A    between atoms: _193  and  _194
REMARK   71  A    between atoms: _193  and  _196
REMARK   72  A    between atoms: _196  and  _197
REMARK   73  A    between atoms: _197  and  _198
REMARK   74  A    between atoms: _201  and  _203
REMARK   75  A    between atoms: _203  and  _204
REMARK   76  A    between atoms: _203  and  _206
REMARK   77  A    between atoms: _206  and  _207
REMARK   78  A    between atoms: _212  and  _213
REMARK   79  A    between atoms: _215  and  _217
REMARK   80  A    between atoms: _217  and  _218
REMARK   81  A    between atoms: _217  and  _220
REMARK   82  A    between atoms: _220  and  _221
REMARK   83  A    between atoms: _224  and  _226
REMARK   84  A    between atoms: _226  and  _227
REMARK   85  A    between atoms: _230  and  _232
REMARK   86  A    between atoms: _232  and  _233
REMARK   87  A    between atoms: _235  and  _237
REMARK   88  A    between atoms: _237  and  _238
REMARK   89  A    between atoms: _241  and  _243
REMARK   90  A    between atoms: _243  and  _244
REMARK   91  A    between atoms: _246  and  _248
REMARK   92  A    between atoms: _248  and  _249
REMARK   93  A    between atoms: _251  and  _253
REMARK   94  A    between atoms: _253  and  _254
REMARK   95  A    between atoms: _253  and  _256
REMARK   96  A    between atoms: _256  and  _257
REMARK   97  A    between atoms: _263  and  _265
REMARK   98  A    between atoms: _265  and  _266
REMARK   99  A    between atoms: _265  and  _268
REMARK  100  A    between atoms: _268  and  _269
REMARK  101  A    between atoms: _275  and  _277
REMARK  102  A    between atoms: _277  and  _278
REMARK  103  A    between atoms: _277  and  _280
REMARK  104  A    between atoms: _280  and  _281
REMARK  105  A    between atoms: _281  and  _282
REMARK  106  A    between atoms: _282  and  _283
REMARK  107  A    between atoms: _292  and  _294
REMARK  108  A    between atoms: _294  and  _295
REMARK  109  A    between atoms: _294  and  _297
REMARK  110  A    between atoms: _297  and  _298
REMARK  111  A    between atoms: _303  and  _305
REMARK  112  A    between atoms: _305  and  _306
REMARK  113  A    between atoms: _305  and  _308
REMARK  114  A    between atoms: _308  and  _309
REMARK  115  A    between atoms: _312  and  _314
REMARK  116  A    between atoms: _314  and  _315
REMARK  117  A    between atoms: _314  and  _317
REMARK  118  A    between atoms: _317  and  _318
REMARK  119  A    between atoms: _318  and  _319
REMARK  120  A    between atoms: _321  and  _323
REMARK  121  A    between atoms: _323  and  _324
REMARK  122  A    between atoms: _323  and  _326
REMARK  123  A    between atoms: _326  and  _327
REMARK  124  A    between atoms: _330  and  _332
REMARK  125  A    between atoms: _332  and  _333
REMARK  126  A    between atoms: _332  and  _335
REMARK  127  A    between atoms: _335  and  _336
REMARK  128  A    between atoms: _341  and  _342
REMARK  129  A    between atoms: _344  and  _346
REMARK  130  A    between atoms: _346  and  _347
REMARK  131  A    between atoms: _346  and  _349
REMARK  132  A    between atoms: _349  and  _350
REMARK  133  A    between atoms: _353  and  _355
REMARK  134  A    between atoms: _355  and  _356
REMARK  135  A    between atoms: _355  and  _358
REMARK  136  A    between atoms: _358  and  _359
REMARK  137  A    between atoms: _362  and  _364
REMARK  138  A    between atoms: _364  and  _365
REMARK  139  A    between atoms: _368  and  _370
REMARK  140  A    between atoms: _370  and  _371
REMARK  141  A    between atoms: _373  and  _375
REMARK  142  A    between atoms: _375  and  _376
REMARK  143  A    between atoms: _375  and  _378
REMARK  144  A    between atoms: _378  and  _379
REMARK  145  A    between atoms: _389  and  _391
REMARK  146  A    between atoms: _391  and  _392
REMARK  147  A    between atoms: _391  and  _394
REMARK  148  A    between atoms: _394  and  _395
REMARK  149  A    between atoms: _395  and  _396
REMARK  150  A    between atoms: _399  and  _401
REMARK  151  A    between atoms: _401  and  _402
REMARK  152  A    between atoms: _401  and  _404
REMARK  153  A    between atoms: _404  and  _405
REMARK  154  A    between atoms: _405  and  _406
REMARK  155  A    between atoms: _411  and  _413
REMARK  156  A    between atoms: _413  and  _414
REMARK  157  A    between atoms: _413  and  _416
REMARK  158  A    between atoms: _420  and  _421
REMARK  159  A    between atoms: _426  and  _428
REMARK  160  A    between atoms: _428  and  _429
REMARK  161  A    between atoms: _428  and  _431
REMARK  162  A    between atoms: _431  and  _432
REMARK  163  A    between atoms: _438  and  _440
REMARK  164  A    between atoms: _440  and  _441
REMARK  165  A    between atoms: _440  and  _443
REMARK  166  A    between atoms: _443  and  _444
REMARK  167  A    between atoms: _449  and  _450
REMARK  168  A    between atoms: _452  and  _454
REMARK  169  A    between atoms: _454  and  _455
REMARK  170  A    between atoms: _457  and  _459
REMARK  171  A    between atoms: _459  and  _460
REMARK  172  A    between atoms: _459  and  _462
REMARK  173  A    between atoms: _462  and  _463
REMARK  174  A    between atoms: _463  and  _464
REMARK  175  A    between atoms: _464  and  _465
REMARK  176  A    between atoms: _474  and  _476
REMARK  177  A    between atoms: _476  and  _477
REMARK  178  A    between atoms: _476  and  _479
REMARK  179  A    between atoms: _479  and  _480
REMARK  180  A    between atoms: _483  and  _485
REMARK  181  A    between atoms: _485  and  _486
REMARK  182  A    between atoms: _485  and  _488
REMARK  183  A    between atoms: _488  and  _489
REMARK  184  A    between atoms: _492  and  _494
REMARK  185  A    between atoms: _494  and  _495
REMARK  186  A    between atoms: _494  and  _497
REMARK  187  A    between atoms: _497  and  _498
REMARK  188  A    between atoms: _501  and  _503
REMARK  189  A    between atoms: _503  and  _504
REMARK  190  A    between atoms: _503  and  _506
REMARK  191  A    between atoms: _506  and  _507
REMARK  192  A    between atoms: _507  and  _508
REMARK  193  A    between atoms: _508  and  _509
REMARK  194  A    between atoms: _518  and  _520
REMARK  195  A    between atoms: _520  and  _521
REMARK  196  A    between atoms: _520  and  _523
REMARK  197  A    between atoms: _523  and  _524
REMARK  198  A    between atoms: _527  and  _529
REMARK  199  A    between atoms: _529  and  _530
REMARK  200  A    between atoms: _533  and  _535
REMARK  201  A    between atoms: _535  and  _536
REMARK  202  A    between atoms: _535  and  _538
REMARK  203  A    between atoms: _538  and  _539
REMARK  204  A    between atoms: _541  and  _543
REMARK  205  A    between atoms: _543  and  _544
REMARK  206  A    between atoms: _543  and  _546
REMARK  207  A    between atoms: _546  and  _547
REMARK  208  A    between atoms: _547  and  _548
REMARK  209  A    between atoms: _550  and  _552
REMARK  210  A    between atoms: _552  and  _553
REMARK  211  A    between atoms: _552  and  _555
REMARK  212  A    between atoms: _555  and  _556
REMARK  213  A    between atoms: _562  and  _564
REMARK  214  A    between atoms: _564  and  _565
REMARK  215  A    between atoms: _564  and  _567
REMARK  216  A    between atoms: _567  and  _568
REMARK  217  A    between atoms: _578  and  _580
REMARK  218  A    between atoms: _580  and  _581
REMARK  219  A    between atoms: _580  and  _583
REMARK  220  A    between atoms: _583  and  _584
REMARK  221  A    between atoms: _589  and  _591
REMARK  222  A    between atoms: _591  and  _592
REMARK  223  A    between atoms: _591  and  _594
REMARK  224  A    between atoms: _594  and  _595
REMARK  225  A    between atoms: _595  and  _596
REMARK                            x       y       z     vdW  Elec       q    Type
REMARK                         _______ _______ _______ _____ _____    ______ ____
ROOT
ATOM      1  C   SER A   1      10.461  45.676 108.463  0.00  0.00    +0.241 C 
ATOM      2  O   SER A   1      10.606  44.833 109.349  0.00  0.00    -0.274 OA
ATOM      3  N   PHE A   2       9.558  45.538 107.503  0.00  0.00    -0.298 N 
ATOM      4  H   PHE A   2       8.973  44.678 107.512  0.00  0.00    +0.150 HD
ENDROOT
BRANCH   1   5
ATOM      5  CA  SER A   1      11.383  46.904 108.408  0.00  0.00    +0.174 C 
BRANCH   5   6
ATOM      6  N   SER A   1      11.639  47.463 109.747  0.00  0.00    -0.236 NA
ATOM      7  H   SER A   1      11.948  46.823 110.506  0.00  0.00    +0.142 HD
ENDBRANCH   5   6
BRANCH   5   8
ATOM      8  CB  SER A   1      12.715  46.471 107.785  0.00  0.00    +0.163 C 
BRANCH   8   9
ATOM      9  OG  SER A   1      13.712  47.479 107.915  0.00  0.00    -0.380 OA
ATOM     10  H   SER A   1      13.864  47.669 108.875  0.00  0.00    +0.211 HD
ENDBRANCH   8   9
ENDBRANCH   5   8
ENDBRANCH   1   5
BRANCH   3  11
ATOM     11  CA  PHE A   2       9.323  46.506 106.432  0.00  0.00    +0.141 C 
BRANCH  11  12
ATOM     12  C   PHE A   2       7.849  46.786 106.357  0.00  0.00    +0.227 C 
ATOM     13  O   PHE A   2       7.034  45.933 106.715  0.00  0.00    -0.286 OA
ENDBRANCH  11  12
BRANCH  11  14
ATOM     14  CB  PHE A   2       9.668  45.948 105.048  0.00  0.00    +0.054 C 
BRANCH  14  15
ATOM     15  CG  PHE A   2      11.122  45.938 104.729  0.00  0.00    -0.020 A 
ATOM     16  CD2 PHE A   2      11.812  44.727 104.660  0.00  0.00    -0.004 A 
ATOM     17  CE2 PHE A   2      13.177  44.703 104.332  0.00  0.00    -0.000 A 
ATOM     18  CZ  PHE A   2      13.849  45.900 104.075  0.00  0.00    -0.000 A 
ATOM     19  CE1 PHE A   2      13.156  47.128 104.145  0.00  0.00    -0.000 A 
ATOM     20  CD1 PHE A   2      11.803  47.133 104.471  0.00  0.00    -0.004 A 
ENDBRANCH  14  15
ENDBRANCH  11  14
ENDBRANCH   3  11
TORSDOF 8
REMARK  Name = ../refined-set-2016/1ur9/1ur9_pocket.pdb
REMARK  225 active torsions:
REMARK  status: ('A' for Active; 'I' for Inactive)
REMARK    1  A    between atoms: _1  and  _3
REMARK    2  A    between atoms: _3  and  _4
REMARK    3  A    between atoms: _3  and  _6
REMARK    4  A    between atoms: _6  and  _7
REMARK    5  A    between atoms: _12  and  _13
REMARK    6  A    between atoms: _15  and  _17
REMARK    7  A    between atoms: _17  and  _18
REMARK    8  A    between atoms: _17  and  _20
REMARK    9  A    between atoms: _20  and  _21
REMARK   10  A    between atoms: _28  and  _29
REMARK   11  A    between atoms: _34  and  _36
REMARK   12  A    between atoms: _36  and  _37
REMARK   13  A    between atoms: _36  and  _39
REMARK   14  A    between atoms: _39  and  _40
REMARK   15  A    between atoms: _45  and  _47
REMARK   16  A    between atoms: _47  and  _48
REMARK   17  A    between atoms: _47  and  _50
REMARK   18  A    between atoms: _50  and  _51
REMARK   19  A    between atoms: _53  and  _55
REMARK   20  A    between atoms: _55  and  _56
REMARK   21  A    between atoms: _55  and  _58
REMARK   22  A    between atoms: _58  and  _59
REMARK   23  A    between atoms: _65  and  _67
REMARK   24  A    between atoms: _67  and  _68
REMARK   25  A    between atoms: _67  and  _70
REMARK   26  A    between atoms: _70  and  _71
REMARK   27  A    between atoms: _73  and  _75
REMARK   28  A    between atoms: _75  and  _76
REMARK   29  A    between atoms: _78  and  _80
REMARK   30  A    between atoms: _80  and  _81
REMARK   31  A    between atoms: _83  and  _85
REMARK   32  A    between atoms: _85  and  _86
REMARK   33  A    between atoms: _85  and  _88
REMARK   34  A    between atoms: _88  and  _89
REMARK   35  A    between atoms: _99  and  _101
REMARK   36  A    between atoms: _101  and  _102
REMARK   37  A    between atoms: _101  and  _104
REMARK   38  A    between atoms: _104  and  _105
REMARK   39  A    between atoms: _110  and  _111
REMARK   40  A    between atoms: _113  and  _115
REMARK   41  A    between atoms: _115  and  _116
REMARK   42  A    between atoms: _115  and  _118
REMARK   43  A    between atoms: _118  and  _119
REMARK   44  A    between atoms: _124  and  _125
REMARK   45  A    between atoms: _127  and  _129
REMARK   46  A    between atoms: _129  and  _130
REMARK   47  A    between atoms: _129  and  _132
REMARK   48  A    between atoms: _132  and  _133
REMARK   49  A    between atoms: _135  and  _137
REMARK   50  A    between atoms: _137  and  _138
REMARK   51  A    between atoms: _137  and  _140
REMARK   52  A    between atoms: _140  and  _141
REMARK   53  A    between atoms: _146  and  _148
REMARK   54  A    between atoms: _148  and  _149
REMARK   55  A    between atoms: _148  and  _151
REMARK   56  A    between atoms: _151  and  _152
REMARK   57  A    between atoms: _155  and  _157
REMARK   58  A    between atoms: _157  and  _158
REMARK   59  A    between atoms: _157  and  _160
REMARK   60  A    between atoms: _160  and  _161
REMARK   61  A    between atoms: _164  and  _166
REMARK   62  A    between atoms: _166  and  _167
REMARK   63  A    between atoms: _166  and  _169
REMARK   64  A    between atoms: _169  and  _170
REMARK   65  A    between atoms: _175  and  _177
REMARK   66  A    between atoms: _177  and  _178
REMARK   67  A    between atoms: _177  and  _180
REMARK   68  A    between atoms: _180  and  _181
REMARK   69  A    between atoms: _191  and  _193
REMARK   70  A    between atoms: _193  and  _194
REMARK   71  A    between atoms: _193  and  _196
REMARK   72  A    between atoms: _196  and  _197
REMARK   73  A    between atoms: _197  and  _198
REMARK   74  A    between atoms: _201  and  _203
REMARK   75  A    between atoms: _203  and  _204
REMARK   76  A    between atoms: _203  and  _206
REMARK   77  A    between atoms: _206  and  _207
REMARK   78  A    between atoms: _212  and  _213
REMARK   79  A    between atoms: _215  and  _217
REMARK   80  A    between atoms: _217  and  _218
REMARK   81  A    between atoms: _217  and  _220
REMARK   82  A    between atoms: _220  and  _221
REMARK   83  A    between atoms: _224  and  _226
REMARK   84  A    between atoms: _226  and  _227
REMARK   85  A    between atoms: _230  and  _232
REMARK   86  A    between atoms: _232  and  _233
REMARK   87  A    between atoms: _235  and  _237
REMARK   88  A    between atoms: _237  and  _238
REMARK   89  A    between atoms: _241  and  _243
REMARK   90  A    between atoms: _243  and  _244
REMARK   91  A    between atoms: _246  and  _248
REMARK   92  A    between atoms: _248  and  _249
REMARK   93  A    between atoms: _251  and  _253
REMARK   94  A    between atoms: _253  and  _254
REMARK   95  A    between atoms: _253  and  _256
REMARK   96  A    between atoms: _256  and  _257
REMARK   97  A    between atoms: _263  and  _265
REMARK   98  A    between atoms: _265  and  _266
REMARK   99  A    between atoms: _265  and  _268
REMARK  100  A    between atoms: _268  and  _269
REMARK  101  A    between atoms: _275  and  _277
REMARK  102  A    between atoms: _277  and  _278
REMARK  103  A    between atoms: _277  and  _280
REMARK  104  A    between atoms: _280  and  _281
REMARK  105  A    between atoms: _281  and  _282
REMARK  106  A    between atoms: _282  and  _283
REMARK  107  A    between atoms: _292  and  _294
REMARK  108  A    between atoms: _294  and  _295
REMARK  109  A    between atoms: _294  and  _297
REMARK  110  A    between atoms: _297  and  _298
REMARK  111  A    between atoms: _303  and  _305
REMARK  112  A    between atoms: _305  and  _306
REMARK  113  A    between atoms: _305  and  _308
REMARK  114  A    between atoms: _308  and  _309
REMARK  115  A    between atoms: _312  and  _314
REMARK  116  A    between atoms: _314  and  _315
REMARK  117  A    between atoms: _314  and  _317
REMARK  118  A    between atoms: _317  and  _318
REMARK  119  A    between atoms: _318  and  _319
REMARK  120  A    between atoms: _321  and  _323
REMARK  121  A    between atoms: _323  and  _324
REMARK  122  A    between atoms: _323  and  _326
REMARK  123  A    between atoms: _326  and  _327
REMARK  124  A    between atoms: _330  and  _332
REMARK  125  A    between atoms: _332  and  _333
REMARK  126  A    between atoms: _332  and  _335
REMARK  127  A    between atoms: _335  and  _336
REMARK  128  A    between atoms: _341  and  _342
REMARK  129  A    between atoms: _344  and  _346
REMARK  130  A    between atoms: _346  and  _347
REMARK  131  A    between atoms: _346  and  _349
REMARK  132  A    between atoms: _349  and  _350
REMARK  133  A    between atoms: _353  and  _355
REMARK  134  A    between atoms: _355  and  _356
REMARK  135  A    between atoms: _355  and  _358
REMARK  136  A    between atoms: _358  and  _359
REMARK  137  A    between atoms: _362  and  _364
REMARK  138  A    between atoms: _364  and  _365
REMARK  139  A    between atoms: _368  and  _370
REMARK  140  A    between atoms: _370  and  _371
REMARK  141  A    between atoms: _373  and  _375
REMARK  142  A    between atoms: _375  and  _376
REMARK  143  A    between atoms: _375  and  _378
REMARK  144  A    between atoms: _378  and  _379
REMARK  145  A    between atoms: _389  and  _391
REMARK  146  A    between atoms: _391  and  _392
REMARK  147  A    between atoms: _391  and  _394
REMARK  148  A    between atoms: _394  and  _395
REMARK  149  A    between atoms: _395  and  _396
REMARK  150  A    between atoms: _399  and  _401
REMARK  151  A    between atoms: _401  and  _402
REMARK  152  A    between atoms: _401  and  _404
REMARK  153  A    between atoms: _404  and  _405
REMARK  154  A    between atoms: _405  and  _406
REMARK  155  A    between atoms: _411  and  _413
REMARK  156  A    between atoms: _413  and  _414
REMARK  157  A    between atoms: _413  and  _416
REMARK  158  A    between atoms: _420  and  _421
REMARK  159  A    between atoms: _426  and  _428
REMARK  160  A    between atoms: _428  and  _429
REMARK  161  A    between atoms: _428  and  _431
REMARK  162  A    between atoms: _431  and  _432
REMARK  163  A    between atoms: _438  and  _440
REMARK  164  A    between atoms: _440  and  _441
REMARK  165  A    between atoms: _440  and  _443
REMARK  166  A    between atoms: _443  and  _444
REMARK  167  A    between atoms: _449  and  _450
REMARK  168  A    between atoms: _452  and  _454
REMARK  169  A    between atoms: _454  and  _455
REMARK  170  A    between atoms: _457  and  _459
REMARK  171  A    between atoms: _459  and  _460
REMARK  172  A    between atoms: _459  and  _462
REMARK  173  A    between atoms: _462  and  _463
REMARK  174  A    between atoms: _463  and  _464
REMARK  175  A    between atoms: _464  and  _465
REMARK  176  A    between atoms: _474  and  _476
REMARK  177  A    between atoms: _476  and  _477
REMARK  178  A    between atoms: _476  and  _479
REMARK  179  A    between atoms: _479  and  _480
REMARK  180  A    between atoms: _483  and  _485
REMARK  181  A    between atoms: _485  and  _486
REMARK  182  A    between atoms: _485  and  _488
REMARK  183  A    between atoms: _488  and  _489
REMARK  184  A    between atoms: _492  and  _494
REMARK  185  A    between atoms: _494  and  _495
REMARK  186  A    between atoms: _494  and  _497
REMARK  187  A    between atoms: _497  and  _498
REMARK  188  A    between atoms: _501  and  _503
REMARK  189  A    between atoms: _503  and  _504
REMARK  190  A    between atoms: _503  and  _506
REMARK  191  A    between atoms: _506  and  _507
REMARK  192  A    between atoms: _507  and  _508
REMARK  193  A    between atoms: _508  and  _509
REMARK  194  A    between atoms: _518  and  _520
REMARK  195  A    between atoms: _520  and  _521
REMARK  196  A    between atoms: _520  and  _523
REMARK  197  A    between atoms: _523  and  _524
REMARK  198  A    between atoms: _527  and  _529
REMARK  199  A    between atoms: _529  and  _530
REMARK  200  A    between atoms: _533  and  _535
REMARK  201  A    between atoms: _535  and  _536
REMARK  202  A    between atoms: _535  and  _538
REMARK  203  A    between atoms: _538  and  _539
REMARK  204  A    between atoms: _541  and  _543
REMARK  205  A    between atoms: _543  and  _544
REMARK  206  A    between atoms: _543  and  _546
REMARK  207  A    between atoms: _546  and  _547
REMARK  208  A    between atoms: _547  and  _548
REMARK  209  A    between atoms: _550  and  _552
REMARK  210  A    between atoms: _552  and  _553
REMARK  211  A    between atoms: _552  and  _555
REMARK  212  A    between atoms: _555  and  _556
REMARK  213  A    between atoms: _562  and  _564
REMARK  214  A    between atoms: _564  and  _565
REMARK  215  A    between atoms: _564  and  _567
REMARK  216  A    between atoms: _567  and  _568
REMARK  217  A    between atoms: _578  and  _580
REMARK  218  A    between atoms: _580  and  _581
REMARK  219  A    between atoms: _580  and  _583
REMARK  220  A    between atoms: _583  and  _584
REMARK  221  A    between atoms: _589  and  _591
REMARK  222  A    between atoms: _591  and  _592
REMARK  223  A    between atoms: _591  and  _594
REMARK  224  A    between atoms: _594  and  _595
REMARK  225  A    between atoms: _595  and  _596
REMARK                            x       y       z     vdW  Elec       q    Type
REMARK                         _______ _______ _______ _____ _____    ______ ____
ROOT
ATOM      1  CA  SER A   1      11.463  51.472 105.951  0.00  0.00    +0.163 C 
ENDROOT
BRANCH   1   2
ATOM      2  N   SER A   1      10.982  51.613 107.314  0.00  0.00    -0.237 NA
ATOM      3  H   SER A   1      10.854  50.762 107.899  0.00  0.00    +0.142 HD
ENDBRANCH   1   2
BRANCH   1   4
ATOM      4  C   SER A   1      10.380  50.872 105.047  0.00  0.00    +0.227 C 
ATOM      5  O   SER A   1       9.725  49.914 105.421  0.00  0.00    -0.287 OA
ENDBRANCH   1   4
BRANCH   1   6
ATOM      6  CB  SER A   1      12.697  50.550 105.916  0.00  0.00    +0.162 C 
BRANCH   6   7
ATOM      7  OG  SER A   1      13.231  50.480 104.606  0.00  0.00    -0.380 OA
ATOM      8  H   SER A   1      13.499  51.386 104.311  0.00  0.00    +0.211 HD
ENDBRANCH   6   7
ENDBRANCH   1   6
TORSDOF 4
REMARK  Name = ../refined-set-2016/1ur9/1ur9_pocket.pdb
REMARK  225 active torsions:
REMARK  status: ('A' for Active; 'I' for Inactive)
REMARK    1  A    between atoms: _1  and  _3
REMARK    2  A    between atoms: _3  and  _4
REMARK    3  A    between atoms: _3  and  _6
REMARK    4  A    between atoms: _6  and  _7
REMARK    5  A    between atoms: _12  and  _13
REMARK    6  A    between atoms: _15  and  _17
REMARK    7  A    between atoms: _17  and  _18
REMARK    8  A    between atoms: _17  and  _20
REMARK    9  A    between atoms: _20  and  _21
REMARK   10  A    between atoms: _28  and  _29
REMARK   11  A    between atoms: _34  and  _36
REMARK   12  A    between atoms: _36  and  _37
REMARK   13  A    between atoms: _36  and  _39
REMARK   14  A    between atoms: _39  and  _40
REMARK   15  A    between atoms: _45  and  _47
REMARK   16  A    between atoms: _47  and  _48
REMARK   17  A    between atoms: _47  and  _50
REMARK   18  A    between atoms: _50  and  _51
REMARK   19  A    between atoms: _53  and  _55
REMARK   20  A    between atoms: _55  and  _56
REMARK   21  A    between atoms: _55  and  _58
REMARK   22  A    between atoms: _58  and  _59
REMARK   23  A    between atoms: _65  and  _67
REMARK   24  A    between atoms: _67  and  _68
REMARK   25  A    between atoms: _67  and  _70
REMARK   26  A    between atoms: _70  and  _71
REMARK   27  A    between atoms: _73  and  _75
REMARK   28  A    between atoms: _75  and  _76
REMARK   29  A    between atoms: _78  and  _80
REMARK   30  A    between atoms: _80  and  _81
REMARK   31  A    between atoms: _83  and  _85
REMARK   32  A    between atoms: _85  and  _86
REMARK   33  A    between atoms: _85  and  _88
REMARK   34  A    between atoms: _88  and  _89
REMARK   35  A    between atoms: _99  and  _101
REMARK   36  A    between atoms: _101  and  _102
REMARK   37  A    between atoms: _101  and  _104
REMARK   38  A    between atoms: _104  and  _105
REMARK   39  A    between atoms: _110  and  _111
REMARK   40  A    between atoms: _113  and  _115
REMARK   41  A    between atoms: _115  and  _116
REMARK   42  A    between atoms: _115  and  _118
REMARK   43  A    between atoms: _118  and  _119
REMARK   44  A    between atoms: _124  and  _125
REMARK   45  A    between atoms: _127  and  _129
REMARK   46  A    between atoms: _129  and  _130
REMARK   47  A    between atoms: _129  and  _132
REMARK   48  A    between atoms: _132  and  _133
REMARK   49  A    between atoms: _135  and  _137
REMARK   50  A    between atoms: _137  and  _138
REMARK   51  A    between atoms: _137  and  _140
REMARK   52  A    between atoms: _140  and  _141
REMARK   53  A    between atoms: _146  and  _148
REMARK   54  A    between atoms: _148  and  _149
REMARK   55  A    between atoms: _148  and  _151
REMARK   56  A    between atoms: _151  and  _152
REMARK   57  A    between atoms: _155  and  _157
REMARK   58  A    between atoms: _157  and  _158
REMARK   59  A    between atoms: _157  and  _160
REMARK   60  A    between atoms: _160  and  _161
REMARK   61  A    between atoms: _164  and  _166
REMARK   62  A    between atoms: _166  and  _167
REMARK   63  A    between atoms: _166  and  _169
REMARK   64  A    between atoms: _169  and  _170
REMARK   65  A    between atoms: _175  and  _177
REMARK   66  A    between atoms: _177  and  _178
REMARK   67  A    between atoms: _177  and  _180
REMARK   68  A    between atoms: _180  and  _181
REMARK   69  A    between atoms: _191  and  _193
REMARK   70  A    between atoms: _193  and  _194
REMARK   71  A    between atoms: _193  and  _196
REMARK   72  A    between atoms: _196  and  _197
REMARK   73  A    between atoms: _197  and  _198
REMARK   74  A    between atoms: _201  and  _203
REMARK   75  A    between atoms: _203  and  _204
REMARK   76  A    between atoms: _203  and  _206
REMARK   77  A    between atoms: _206  and  _207
REMARK   78  A    between atoms: _212  and  _213
REMARK   79  A    between atoms: _215  and  _217
REMARK   80  A    between atoms: _217  and  _218
REMARK   81  A    between atoms: _217  and  _220
REMARK   82  A    between atoms: _220  and  _221
REMARK   83  A    between atoms: _224  and  _226
REMARK   84  A    between atoms: _226  and  _227
REMARK   85  A    between atoms: _230  and  _232
REMARK   86  A    between atoms: _232  and  _233
REMARK   87  A    between atoms: _235  and  _237
REMARK   88  A    between atoms: _237  and  _238
REMARK   89  A    between atoms: _241  and  _243
REMARK   90  A    between atoms: _243  and  _244
REMARK   91  A    between atoms: _246  and  _248
REMARK   92  A    between atoms: _248  and  _249
REMARK   93  A    between atoms: _251  and  _253
REMARK   94  A    between atoms: _253  and  _254
REMARK   95  A    between atoms: _253  and  _256
REMARK   96  A    between atoms: _256  and  _257
REMARK   97  A    between atoms: _263  and  _265
REMARK   98  A    between atoms: _265  and  _266
REMARK   99  A    between atoms: _265  and  _268
REMARK  100  A    between atoms: _268  and  _269
REMARK  101  A    between atoms: _275  and  _277
REMARK  102  A    between atoms: _277  and  _278
REMARK  103  A    between atoms: _277  and  _280
REMARK  104  A    between atoms: _280  and  _281
REMARK  105  A    between atoms: _281  and  _282
REMARK  106  A    between atoms: _282  and  _283
REMARK  107  A    between atoms: _292  and  _294
REMARK  108  A    between atoms: _294  and  _295
REMARK  109  A    between atoms: _294  and  _297
REMARK  110  A    between atoms: _297  and  _298
REMARK  111  A    between atoms: _303  and  _305
REMARK  112  A    between atoms: _305  and  _306
REMARK  113  A    between atoms: _305  and  _308
REMARK  114  A    between atoms: _308  and  _309
REMARK  115  A    between atoms: _312  and  _314
REMARK  116  A    between atoms: _314  and  _315
REMARK  117  A    between atoms: _314  and  _317
REMARK  118  A    between atoms: _317  and  _318
REMARK  119  A    between atoms: _318  and  _319
REMARK  120  A    between atoms: _321  and  _323
REMARK  121  A    between atoms: _323  and  _324
REMARK  122  A    between atoms: _323  and  _326
REMARK  123  A    between atoms: _326  and  _327
REMARK  124  A    between atoms: _330  and  _332
REMARK  125  A    between atoms: _332  and  _333
REMARK  126  A    between atoms: _332  and  _335
REMARK  127  A    between atoms: _335  and  _336
REMARK  128  A    between atoms: _341  and  _342
REMARK  129  A    between atoms: _344  and  _346
REMARK  130  A    between atoms: _346  and  _347
REMARK  131  A    between atoms: _346  and  _349
REMARK  132  A    between atoms: _349  and  _350
REMARK  133  A    between atoms: _353  and  _355
REMARK  134  A    between atoms: _355  and  _356
REMARK  135  A    between atoms: _355  and  _358
REMARK  136  A    between atoms: _358  and  _359
REMARK  137  A    between atoms: _362  and  _364
REMARK  138  A    between atoms: _364  and  _365
REMARK  139  A    between atoms: _368  and  _370
REMARK  140  A    between atoms: _370  and  _371
REMARK  141  A    between atoms: _373  and  _375
REMARK  142  A    between atoms: _375  and  _376
REMARK  143  A    between atoms: _375  and  _378
REMARK  144  A    between atoms: _378  and  _379
REMARK  145  A    between atoms: _389  and  _391
REMARK  146  A    between atoms: _391  and  _392
REMARK  147  A    between atoms: _391  and  _394
REMARK  148  A    between atoms: _394  and  _395
REMARK  149  A    between atoms: _395  and  _396
REMARK  150  A    between atoms: _399  and  _401
REMARK  151  A    between atoms: _401  and  _402
REMARK  152  A    between atoms: _401  and  _404
REMARK  153  A    between atoms: _404  and  _405
REMARK  154  A    between atoms: _405  and  _406
REMARK  155  A    between atoms: _411  and  _413
REMARK  156  A    between atoms: _413  and  _414
REMARK  157  A    between atoms: _413  and  _416
REMARK  158  A    between atoms: _420  and  _421
REMARK  159  A    between atoms: _426  and  _428
REMARK  160  A    between atoms: _428  and  _429
REMARK  161  A    between atoms: _428  and  _431
REMARK  162  A    between atoms: _431  and  _432
REMARK  163  A    between atoms: _438  and  _440
REMARK  164  A    between atoms: _440  and  _441
REMARK  165  A    between atoms: _440  and  _443
REMARK  166  A    between atoms: _443  and  _444
REMARK  167  A    between atoms: _449  and  _450
REMARK  168  A    between atoms: _452  and  _454
REMARK  169  A    between atoms: _454  and  _455
REMARK  170  A    between atoms: _457  and  _459
REMARK  171  A    between atoms: _459  and  _460
REMARK  172  A    between atoms: _459  and  _462
REMARK  173  A    between atoms: _462  and  _463
REMARK  174  A    between atoms: _463  and  _464
REMARK  175  A    between atoms: _464  and  _465
REMARK  176  A    between atoms: _474  and  _476
REMARK  177  A    between atoms: _476  and  _477
REMARK  178  A    between atoms: _476  and  _479
REMARK  179  A    between atoms: _479  and  _480
REMARK  180  A    between atoms: _483  and  _485
REMARK  181  A    between atoms: _485  and  _486
REMARK  182  A    between atoms: _485  and  _488
REMARK  183  A    between atoms: _488  and  _489
REMARK  184  A    between atoms: _492  and  _494
REMARK  185  A    between atoms: _494  and  _495
REMARK  186  A    between atoms: _494  and  _497
REMARK  187  A    between atoms: _497  and  _498
REMARK  188  A    between atoms: _501  and  _503
REMARK  189  A    between atoms: _503  and  _504
REMARK  190  A    between atoms: _503  and  _506
REMARK  191  A    between atoms: _506  and  _507
REMARK  192  A    between atoms: _507  and  _508
REMARK  193  A    between atoms: _508  and  _509
REMARK  194  A    between atoms: _518  and  _520
REMARK  195  A    between atoms: _520  and  _521
REMARK  196  A    between atoms: _520  and  _523
REMARK  197  A    between atoms: _523  and  _524
REMARK  198  A    between atoms: _527  and  _529
REMARK  199  A    between atoms: _529  and  _530
REMARK  200  A    between atoms: _533  and  _535
REMARK  201  A    between atoms: _535  and  _536
REMARK  202  A    between atoms: _535  and  _538
REMARK  203  A    between atoms: _538  and  _539
REMARK  204  A    between atoms: _541  and  _543
REMARK  205  A    between atoms: _543  and  _544
REMARK  206  A    between atoms: _543  and  _546
REMARK  207  A    between atoms: _546  and  _547
REMARK  208  A    between atoms: _547  and  _548
REMARK  209  A    between atoms: _550  and  _552
REMARK  210  A    between atoms: _552  and  _553
REMARK  211  A    between atoms: _552  and  _555
REMARK  212  A    between atoms: _555  and  _556
REMARK  213  A    between atoms: _562  and  _564
REMARK  214  A    between atoms: _564  and  _565
REMARK  215  A    between atoms: _564  and  _567
REMARK  216  A    between atoms: _567  and  _568
REMARK  217  A    between atoms: _578  and  _580
REMARK  218  A    between atoms: _580  and  _581
REMARK  219  A    between atoms: _580  and  _583
REMARK  220  A    between atoms: _583  and  _584
REMARK  221  A    between atoms: _589  and  _591
REMARK  222  A    between atoms: _591  and  _592
REMARK  223  A    between atoms: _591  and  _594
REMARK  224  A    between atoms: _594  and  _595
REMARK  225  A    between atoms: _595  and  _596
REMARK                            x       y       z     vdW  Elec       q    Type
REMARK                         _______ _______ _______ _____ _____    ______ ____
ROOT
ATOM      1  CA  TYR A   4      10.586  40.661  99.002  0.00  0.00    +0.153 C 
ENDROOT
BRANCH   1   3
ATOM      2  C   TRP A   3      12.376  42.123  98.221  0.00  0.00    +0.241 C 
ATOM      3  N   TYR A   4      11.813  41.435  99.203  0.00  0.00    -0.297 N 
ATOM      4  H   TYR A   4      12.255  41.445 100.144  0.00  0.00    +0.150 HD
ATOM      5  O   TRP A   3      11.905  42.205  97.108  0.00  0.00    -0.273 OA
BRANCH   2   6
ATOM      6  CA  TRP A   3      13.677  42.850  98.533  0.00  0.00    +0.153 C 
BRANCH   6   8
ATOM      7  C   GLY A   2      12.839  44.799  99.639  0.00  0.00    +0.243 C 
ATOM      8  N   TRP A   3      13.595  43.710  99.695  0.00  0.00    -0.297 N 
ATOM      9  H   TRP A   3      14.121  43.477 100.561  0.00  0.00    +0.150 HD
ATOM     10  O   GLY A   2      12.164  45.092  98.628  0.00  0.00    -0.273 OA
BRANCH   7  11
ATOM     11  CA  GLY A   2      12.830  45.680 100.877  0.00  0.00    +0.176 C 
BRANCH  11  14
ATOM     12  C   GLY A   1      10.783  46.941 100.913  0.00  0.00    +0.240 C 
ATOM     13  O   GLY A   1      10.204  46.058 101.549  0.00  0.00    -0.274 OA
ATOM     14  N   GLY A   2      12.059  46.867 100.562  0.00  0.00    -0.295 N 
ATOM     15  H   GLY A   2      12.507  47.660 100.061  0.00  0.00    +0.150 HD
BRANCH  12  16
ATOM     16  CA  GLY A   1      10.075  48.205 100.489  0.00  0.00    +0.169 C 
BRANCH  16  17
ATOM     17  N   GLY A   1       9.507  48.963 101.588  0.00  0.00    -0.236 NA
ATOM     18  H   GLY A   1       8.805  48.530 102.221  0.00  0.00    +0.142 HD
ENDBRANCH  16  17
ENDBRANCH  12  16
ENDBRANCH  11  14
ENDBRANCH   7  11
ENDBRANCH   6   8
BRANCH   6  19
ATOM     19  CB  TRP A   3      14.810  41.833  98.668  0.00  0.00    +0.057 C 
BRANCH  19  20
ATOM     20  CG  TRP A   3      14.916  40.972  97.459  0.00  0.00    -0.002 A 
ATOM     21  CD1 TRP A   3      14.384  39.726  97.291  0.00  0.00    +0.068 A 
ATOM     22  NE1 TRP A   3      14.586  39.301  95.999  0.00  0.00    -0.352 N 
ATOM     23  HE1 TRP A   3      14.277  38.388  95.609  0.00  0.00    +0.166 HD
ATOM     24  CE2 TRP A   3      15.258  40.272  95.309  0.00  0.00    +0.056 A 
ATOM     25  CZ2 TRP A   3      15.681  40.306  93.985  0.00  0.00    +0.017 A 
ATOM     26  CH2 TRP A   3      16.337  41.426  93.555  0.00  0.00    +0.001 A 
ATOM     27  CZ3 TRP A   3      16.582  42.505  94.419  0.00  0.00    +0.000 A 
ATOM     28  CE3 TRP A   3      16.165  42.471  95.732  0.00  0.00    +0.001 A 
ATOM     29  CD2 TRP A   3      15.486  41.338  96.200  0.00  0.00    +0.013 A 
ENDBRANCH  19  20
ENDBRANCH   6  19
ENDBRANCH   2   6
ENDBRANCH   1   3
BRANCH   1  30
ATOM     30  C   TYR A   4       9.437  41.467  98.385  0.00  0.00    +0.241 C 
ATOM     31  N   TYR A   5       9.088  42.582  99.015  0.00  0.00    -0.297 N 
ATOM     32  H   TYR A   5       9.592  42.872  99.878  0.00  0.00    +0.150 HD
ATOM     33  O   TYR A   4       8.879  41.097  97.337  0.00  0.00    -0.273 OA
BRANCH  31  34
ATOM     34  CA  TYR A   5       8.000  43.399  98.498  0.00  0.00    +0.153 C 
BRANCH  34  35
ATOM     35  C   TYR A   5       8.281  44.142  97.197  0.00  0.00    +0.241 C 
ATOM     36  N   SER A   6       9.444  44.786  97.117  0.00  0.00    -0.295 N 
ATOM     37  H   SER A   6      10.141  44.667  97.880  0.00  0.00    +0.150 HD
ATOM     38  O   TYR A   5       7.467  44.125  96.276  0.00  0.00    -0.273 OA
BRANCH  36  39
ATOM     39  CA  SER A   6       9.768  45.654  95.990  0.00  0.00    +0.178 C 
BRANCH  39  40
ATOM     40  C   SER A   6      10.667  45.272  94.828  0.00  0.00    +0.243 C 
ATOM     41  N   ASN A   7      11.304  44.104  94.835  0.00  0.00    -0.298 N 
ATOM     42  H   ASN A   7      11.201  43.434  95.624  0.00  0.00    +0.150 HD
ATOM     43  O   SER A   6      10.806  46.067  93.907  0.00  0.00    -0.273 OA
BRANCH  41  44
ATOM     44  CA  ASN A   7      12.152  43.806  93.688  0.00  0.00    +0.146 C 
BRANCH  44  45
ATOM     45  C   ASN A   7      11.257  43.707  92.442  0.00  0.00    +0.227 C 
ATOM     46  O   ASN A   7      10.027  43.620  92.564  0.00  0.00    -0.286 OA
ENDBRANCH  44  45
BRANCH  44  47
ATOM     47  CB  ASN A   7      12.970  42.518  93.930  0.00  0.00    +0.112 C 
BRANCH  47  48
ATOM     48  CG  ASN A   7      12.148  41.238  93.793  0.00  0.00    +0.222 C 
ATOM     49  ND2 ASN A   7      11.560  40.788  94.889  0.00  0.00    -0.329 N 
ATOM     50 HD21 ASN A   7      11.665  41.305  95.785  0.00  0.00    +0.145 HD
ATOM     51 HD22 ASN A   7      10.992  39.917  94.855  0.00  0.00    +0.145 HD
ATOM     52  OD1 ASN A   7      12.056  40.664  92.704  0.00  0.00    -0.275 OA
ENDBRANCH  47  48
ENDBRANCH  44  47
ENDBRANCH  41  44
ENDBRANCH  39  40
BRANCH  39  53
ATOM     53  CB  SER A   6      10.316  46.990  96.534  0.00  0.00    +0.166 C 
BRANCH  53  54
ATOM     54  OG  SER A   6      11.666  46.829  96.976  0.00  0.00    -0.380 OA
ATOM     55  H   SER A   6      11.698  46.149  97.695  0.00  0.00    +0.211 HD
ENDBRANCH  53  54
ENDBRANCH  39  53
ENDBRANCH  36  39
ENDBRANCH  34  35
BRANCH  34  56
ATOM     56  CB  TYR A   5       7.557  44.460  99.522  0.00  0.00    +0.055 C 
BRANCH  56  57
ATOM     57  CG  TYR A   5       6.983  43.961 100.834  0.00  0.00    -0.020 A 
ATOM     58  CD2 TYR A   5       7.224  44.655 102.020  0.00  0.00    -0.001 A 
ATOM     59  CE2 TYR A   5       6.626  44.271 103.227  0.00  0.00    +0.036 A 
ATOM     60  CZ  TYR A   5       5.778  43.165 103.251  0.00  0.00    +0.134 A 
ATOM     61  CE1 TYR A   5       5.527  42.453 102.090  0.00  0.00    +0.036 A 
ATOM     62  CD1 TYR A   5       6.127  42.854 100.880  0.00  0.00    -0.001 A 
BRANCH  60  63
ATOM     63  OH  TYR A   5       5.203  42.782 104.441  0.00  0.00    -0.506 OA
ATOM     64  HH  TYR A   5       4.633  41.987 104.290  0.00  0.00    +0.292 HD
ENDBRANCH  60  63
ENDBRANCH  56  57
ENDBRANCH  34  56
ENDBRANCH  31  34
ENDBRANCH   1  30
BRANCH   1  65
ATOM     65  CB  TYR A   4      10.141  40.050 100.330  0.00  0.00    +0.055 C 
BRANCH  65  66
ATOM     66  CG  TYR A   4       8.883  39.219 100.207  0.00  0.00    -0.020 A 
ATOM     67  CD2 TYR A   4       7.757  39.492 100.991  0.00  0.00    -0.001 A 
ATOM     68  CE2 TYR A   4       6.600  38.709 100.884  0.00  0.00    +0.036 A 
ATOM     69  CZ  TYR A   4       6.574  37.644  99.981  0.00  0.00    +0.134 A 
ATOM     70  CE1 TYR A   4       7.678  37.361  99.198  0.00  0.00    +0.036 A 
ATOM     71  CD1 TYR A   4       8.826  38.145  99.313  0.00  0.00    -0.001 A 
BRANCH  69  72
ATOM     72  OH  TYR A   4       5.436  36.867  99.851  0.00  0.00    -0.506 OA
ATOM     73  HH  TYR A   4       4.679  37.438  99.567  0.00  0.00    +0.292 HD
ENDBRANCH  69  72
ENDBRANCH  65  66
ENDBRANCH   1  65
TORSDOF 26
REMARK  Name = ../refined-set-2016/1ur9/1ur9_pocket.pdb
REMARK  225 active torsions:
REMARK  status: ('A' for Active; 'I' for Inactive)
REMARK    1  A    between atoms: _1  and  _3
REMARK    2  A    between atoms: _3  and  _4
REMARK    3  A    between atoms: _3  and  _6
REMARK    4  A    between atoms: _6  and  _7
REMARK    5  A    between atoms: _12  and  _13
REMARK    6  A    between atoms: _15  and  _17
REMARK    7  A    between atoms: _17  and  _18
REMARK    8  A    between atoms: _17  and  _20
REMARK    9  A    between atoms: _20  and  _21
REMARK   10  A    between atoms: _28  and  _29
REMARK   11  A    between atoms: _34  and  _36
REMARK   12  A    between atoms: _36  and  _37
REMARK   13  A    between atoms: _36  and  _39
REMARK   14  A    between atoms: _39  and  _40
REMARK   15  A    between atoms: _45  and  _47
REMARK   16  A    between atoms: _47  and  _48
REMARK   17  A    between atoms: _47  and  _50
REMARK   18  A    between atoms: _50  and  _51
REMARK   19  A    between atoms: _53  and  _55
REMARK   20  A    between atoms: _55  and  _56
REMARK   21  A    between atoms: _55  and  _58
REMARK   22  A    between atoms: _58  and  _59
REMARK   23  A    between atoms: _65  and  _67
REMARK   24  A    between atoms: _67  and  _68
REMARK   25  A    between atoms: _67  and  _70
REMARK   26  A    between atoms: _70  and  _71
REMARK   27  A    between atoms: _73  and  _75
REMARK   28  A    between atoms: _75  and  _76
REMARK   29  A    between atoms: _78  and  _80
REMARK   30  A    between atoms: _80  and  _81
REMARK   31  A    between atoms: _83  and  _85
REMARK   32  A    between atoms: _85  and  _86
REMARK   33  A    between atoms: _85  and  _88
REMARK   34  A    between atoms: _88  and  _89
REMARK   35  A    between atoms: _99  and  _101
REMARK   36  A    between atoms: _101  and  _102
REMARK   37  A    between atoms: _101  and  _104
REMARK   38  A    between atoms: _104  and  _105
REMARK   39  A    between atoms: _110  and  _111
REMARK   40  A    between atoms: _113  and  _115
REMARK   41  A    between atoms: _115  and  _116
REMARK   42  A    between atoms: _115  and  _118
REMARK   43  A    between atoms: _118  and  _119
REMARK   44  A    between atoms: _124  and  _125
REMARK   45  A    between atoms: _127  and  _129
REMARK   46  A    between atoms: _129  and  _130
REMARK   47  A    between atoms: _129  and  _132
REMARK   48  A    between atoms: _132  and  _133
REMARK   49  A    between atoms: _135  and  _137
REMARK   50  A    between atoms: _137  and  _138
REMARK   51  A    between atoms: _137  and  _140
REMARK   52  A    between atoms: _140  and  _141
REMARK   53  A    between atoms: _146  and  _148
REMARK   54  A    between atoms: _148  and  _149
REMARK   55  A    between atoms: _148  and  _151
REMARK   56  A    between atoms: _151  and  _152
REMARK   57  A    between atoms: _155  and  _157
REMARK   58  A    between atoms: _157  and  _158
REMARK   59  A    between atoms: _157  and  _160
REMARK   60  A    between atoms: _160  and  _161
REMARK   61  A    between atoms: _164  and  _166
REMARK   62  A    between atoms: _166  and  _167
REMARK   63  A    between atoms: _166  and  _169
REMARK   64  A    between atoms: _169  and  _170
REMARK   65  A    between atoms: _175  and  _177
REMARK   66  A    between atoms: _177  and  _178
REMARK   67  A    between atoms: _177  and  _180
REMARK   68  A    between atoms: _180  and  _181
REMARK   69  A    between atoms: _191  and  _193
REMARK   70  A    between atoms: _193  and  _194
REMARK   71  A    between atoms: _193  and  _196
REMARK   72  A    between atoms: _196  and  _197
REMARK   73  A    between atoms: _197  and  _198
REMARK   74  A    between atoms: _201  and  _203
REMARK   75  A    between atoms: _203  and  _204
REMARK   76  A    between atoms: _203  and  _206
REMARK   77  A    between atoms: _206  and  _207
REMARK   78  A    between atoms: _212  and  _213
REMARK   79  A    between atoms: _215  and  _217
REMARK   80  A    between atoms: _217  and  _218
REMARK   81  A    between atoms: _217  and  _220
REMARK   82  A    between atoms: _220  and  _221
REMARK   83  A    between atoms: _224  and  _226
REMARK   84  A    between atoms: _226  and  _227
REMARK   85  A    between atoms: _230  and  _232
REMARK   86  A    between atoms: _232  and  _233
REMARK   87  A    between atoms: _235  and  _237
REMARK   88  A    between atoms: _237  and  _238
REMARK   89  A    between atoms: _241  and  _243
REMARK   90  A    between atoms: _243  and  _244
REMARK   91  A    between atoms: _246  and  _248
REMARK   92  A    between atoms: _248  and  _249
REMARK   93  A    between atoms: _251  and  _253
REMARK   94  A    between atoms: _253  and  _254
REMARK   95  A    between atoms: _253  and  _256
REMARK   96  A    between atoms: _256  and  _257
REMARK   97  A    between atoms: _263  and  _265
REMARK   98  A    between atoms: _265  and  _266
REMARK   99  A    between atoms: _265  and  _268
REMARK  100  A    between atoms: _268  and  _269
REMARK  101  A    between atoms: _275  and  _277
REMARK  102  A    between atoms: _277  and  _278
REMARK  103  A    between atoms: _277  and  _280
REMARK  104  A    between atoms: _280  and  _281
REMARK  105  A    between atoms: _281  and  _282
REMARK  106  A    between atoms: _282  and  _283
REMARK  107  A    between atoms: _292  and  _294
REMARK  108  A    between atoms: _294  and  _295
REMARK  109  A    between atoms: _294  and  _297
REMARK  110  A    between atoms: _297  and  _298
REMARK  111  A    between atoms: _303  and  _305
REMARK  112  A    between atoms: _305  and  _306
REMARK  113  A    between atoms: _305  and  _308
REMARK  114  A    between atoms: _308  and  _309
REMARK  115  A    between atoms: _312  and  _314
REMARK  116  A    between atoms: _314  and  _315
REMARK  117  A    between atoms: _314  and  _317
REMARK  118  A    between atoms: _317  and  _318
REMARK  119  A    between atoms: _318  and  _319
REMARK  120  A    between atoms: _321  and  _323
REMARK  121  A    between atoms: _323  and  _324
REMARK  122  A    between atoms: _323  and  _326
REMARK  123  A    between atoms: _326  and  _327
REMARK  124  A    between atoms: _330  and  _332
REMARK  125  A    between atoms: _332  and  _333
REMARK  126  A    between atoms: _332  and  _335
REMARK  127  A    between atoms: _335  and  _336
REMARK  128  A    between atoms: _341  and  _342
REMARK  129  A    between atoms: _344  and  _346
REMARK  130  A    between atoms: _346  and  _347
REMARK  131  A    between atoms: _346  and  _349
REMARK  132  A    between atoms: _349  and  _350
REMARK  133  A    between atoms: _353  and  _355
REMARK  134  A    between atoms: _355  and  _356
REMARK  135  A    between atoms: _355  and  _358
REMARK  136  A    between atoms: _358  and  _359
REMARK  137  A    between atoms: _362  and  _364
REMARK  138  A    between atoms: _364  and  _365
REMARK  139  A    between atoms: _368  and  _370
REMARK  140  A    between atoms: _370  and  _371
REMARK  141  A    between atoms: _373  and  _375
REMARK  142  A    between atoms: _375  and  _376
REMARK  143  A    between atoms: _375  and  _378
REMARK  144  A    between atoms: _378  and  _379
REMARK  145  A    between atoms: _389  and  _391
REMARK  146  A    between atoms: _391  and  _392
REMARK  147  A    between atoms: _391  and  _394
REMARK  148  A    between atoms: _394  and  _395
REMARK  149  A    between atoms: _395  and  _396
REMARK  150  A    between atoms: _399  and  _401
REMARK  151  A    between atoms: _401  and  _402
REMARK  152  A    between atoms: _401  and  _404
REMARK  153  A    between atoms: _404  and  _405
REMARK  154  A    between atoms: _405  and  _406
REMARK  155  A    between atoms: _411  and  _413
REMARK  156  A    between atoms: _413  and  _414
REMARK  157  A    between atoms: _413  and  _416
REMARK  158  A    between atoms: _420  and  _421
REMARK  159  A    between atoms: _426  and  _428
REMARK  160  A    between atoms: _428  and  _429
REMARK  161  A    between atoms: _428  and  _431
REMARK  162  A    between atoms: _431  and  _432
REMARK  163  A    between atoms: _438  and  _440
REMARK  164  A    between atoms: _440  and  _441
REMARK  165  A    between atoms: _440  and  _443
REMARK  166  A    between atoms: _443  and  _444
REMARK  167  A    between atoms: _449  and  _450
REMARK  168  A    between atoms: _452  and  _454
REMARK  169  A    between atoms: _454  and  _455
REMARK  170  A    between atoms: _457  and  _459
REMARK  171  A    between atoms: _459  and  _460
REMARK  172  A    between atoms: _459  and  _462
REMARK  173  A    between atoms: _462  and  _463
REMARK  174  A    between atoms: _463  and  _464
REMARK  175  A    between atoms: _464  and  _465
REMARK  176  A    between atoms: _474  and  _476
REMARK  177  A    between atoms: _476  and  _477
REMARK  178  A    between atoms: _476  and  _479
REMARK  179  A    between atoms: _479  and  _480
REMARK  180  A    between atoms: _483  and  _485
REMARK  181  A    between atoms: _485  and  _486
REMARK  182  A    between atoms: _485  and  _488
REMARK  183  A    between atoms: _488  and  _489
REMARK  184  A    between atoms: _492  and  _494
REMARK  185  A    between atoms: _494  and  _495
REMARK  186  A    between atoms: _494  and  _497
REMARK  187  A    between atoms: _497  and  _498
REMARK  188  A    between atoms: _501  and  _503
REMARK  189  A    between atoms: _503  and  _504
REMARK  190  A    between atoms: _503  and  _506
REMARK  191  A    between atoms: _506  and  _507
REMARK  192  A    between atoms: _507  and  _508
REMARK  193  A    between atoms: _508  and  _509
REMARK  194  A    between atoms: _518  and  _520
REMARK  195  A    between atoms: _520  and  _521
REMARK  196  A    between atoms: _520  and  _523
REMARK  197  A    between atoms: _523  and  _524
REMARK  198  A    between atoms: _527  and  _529
REMARK  199  A    between atoms: _529  and  _530
REMARK  200  A    between atoms: _533  and  _535
REMARK  201  A    between atoms: _535  and  _536
REMARK  202  A    between atoms: _535  and  _538
REMARK  203  A    between atoms: _538  and  _539
REMARK  204  A    between atoms: _541  and  _543
REMARK  205  A    between atoms: _543  and  _544
REMARK  206  A    between atoms: _543  and  _546
REMARK  207  A    between atoms: _546  and  _547
REMARK  208  A    between atoms: _547  and  _548
REMARK  209  A    between atoms: _550  and  _552
REMARK  210  A    between atoms: _552  and  _553
REMARK  211  A    between atoms: _552  and  _555
REMARK  212  A    between atoms: _555  and  _556
REMARK  213  A    between atoms: _562  and  _564
REMARK  214  A    between atoms: _564  and  _565
REMARK  215  A    between atoms: _564  and  _567
REMARK  216  A    between atoms: _567  and  _568
REMARK  217  A    between atoms: _578  and  _580
REMARK  218  A    between atoms: _580  and  _581
REMARK  219  A    between atoms: _580  and  _583
REMARK  220  A    between atoms: _583  and  _584
REMARK  221  A    between atoms: _589  and  _591
REMARK  222  A    between atoms: _591  and  _592
REMARK  223  A    between atoms: _591  and  _594
REMARK  224  A    between atoms: _594  and  _595
REMARK  225  A    between atoms: _595  and  _596
REMARK                            x       y       z     vdW  Elec       q    Type
REMARK                         _______ _______ _______ _____ _____    ______ ____
ROOT
ATOM      1  CA  TRP A   4      12.698  50.199  96.635  0.00  0.00    +0.153 C 
ENDROOT
BRANCH   1   2
ATOM      2  C   TRP A   4      13.901  49.681  95.856  0.00  0.00    +0.241 C 
ATOM      3  N   GLU A   5      13.954  48.373  95.624  0.00  0.00    -0.297 N 
ATOM      4  H   GLU A   5      13.184  47.754  95.949  0.00  0.00    +0.150 HD
ATOM      5  O   TRP A   4      14.776  50.446  95.472  0.00  0.00    -0.273 OA
BRANCH   3   6
ATOM      6  CA  GLU A   5      15.095  47.810  94.913  0.00  0.00    +0.149 C 
BRANCH   6   7
ATOM      7  C   GLU A   5      14.697  47.225  93.553  0.00  0.00    +0.241 C 
ATOM      8  O   GLU A   5      14.369  46.048  93.482  0.00  0.00    -0.273 OA
ATOM      9  N   TYR A   6      14.732  48.014  92.477  0.00  0.00    -0.298 N 
ATOM     10  H   TYR A   6      14.465  47.586  91.568  0.00  0.00    +0.150 HD
BRANCH   9  11
ATOM     11  CA  TYR A   6      15.113  49.429  92.462  0.00  0.00    +0.141 C 
BRANCH  11  12
ATOM     12  C   TYR A   6      14.287  50.087  91.374  0.00  0.00    +0.227 C 
ATOM     13  O   TYR A   6      13.787  49.398  90.480  0.00  0.00    -0.286 OA
ENDBRANCH  11  12
BRANCH  11  14
ATOM     14  CB  TYR A   6      16.579  49.594  92.060  0.00  0.00    +0.054 C 
BRANCH  14  15
ATOM     15  CG  TYR A   6      17.548  48.921  92.996  0.00  0.00    -0.020 A 
ATOM     16  CD2 TYR A   6      18.129  49.631  94.038  0.00  0.00    -0.001 A 
ATOM     17  CE2 TYR A   6      18.942  48.998  94.967  0.00  0.00    +0.036 A 
ATOM     18  CZ  TYR A   6      19.176  47.642  94.856  0.00  0.00    +0.134 A 
ATOM     19  CE1 TYR A   6      18.612  46.903  93.820  0.00  0.00    +0.036 A 
ATOM     20  CD1 TYR A   6      17.812  47.544  92.897  0.00  0.00    -0.001 A 
BRANCH  18  21
ATOM     21  OH  TYR A   6      19.965  47.018  95.794  0.00  0.00    -0.506 OA
ATOM     22  HH  TYR A   6      19.437  46.320  96.256  0.00  0.00    +0.292 HD
ENDBRANCH  18  21
ENDBRANCH  14  15
ENDBRANCH  11  14
ENDBRANCH   9  11
ENDBRANCH   6   7
BRANCH   6  23
ATOM     23  CB  GLU A   5      15.728  46.723  95.782  0.00  0.00    +0.041 C 
BRANCH  23  24
ATOM     24  CG  GLU A   5      15.647  47.025  97.277  0.00  0.00    +0.116 C 
BRANCH  24  25
ATOM     25  CD  GLU A   5      16.485  46.094  98.122  0.00  0.00    +0.365 C 
ATOM     26  OE2 GLU A   5      15.973  45.014  98.487  0.00  0.00    -0.246 OA
ATOM     27  OE1 GLU A   5      17.654  46.447  98.413  0.00  0.00    -0.246 OA
ENDBRANCH  24  25
ENDBRANCH  23  24
ENDBRANCH   6  23
ENDBRANCH   3   6
ENDBRANCH   1   2
BRANCH   1  30
ATOM     28  C   ASN A   3      13.506  49.999  98.939  0.00  0.00    +0.241 C 
ATOM     29  O   ASN A   3      13.219  48.801  99.027  0.00  0.00    -0.273 OA
ATOM     30  N   TRP A   4      13.261  50.745  97.869  0.00  0.00    -0.297 N 
ATOM     31  H   TRP A   4      13.479  51.761  97.910  0.00  0.00    +0.150 HD
BRANCH  28  32
ATOM     32  CA  ASN A   3      14.159  50.741 100.099  0.00  0.00    +0.158 C 
BRANCH  32  34
ATOM     33  C   ILE A   2      13.683  53.109 100.654  0.00  0.00    +0.241 C 
ATOM     34  N   ASN A   3      13.292  51.834 100.575  0.00  0.00    -0.297 N 
ATOM     35  H   ASN A   3      12.321  51.599 100.866  0.00  0.00    +0.150 HD
ATOM     36  O   ILE A   2      14.804  53.523 100.313  0.00  0.00    -0.273 OA
BRANCH  33  37
ATOM     37  CA  ILE A   2      12.626  54.066 101.205  0.00  0.00    +0.148 C 
BRANCH  37  40
ATOM     38  C   ASP A   1      12.693  54.563 103.558  0.00  0.00    +0.239 C 
ATOM     39  O   ASP A   1      11.764  53.817 103.776  0.00  0.00    -0.274 OA
ATOM     40  N   ILE A   2      13.172  54.781 102.346  0.00  0.00    -0.297 N 
ATOM     41  H   ILE A   2      13.942  55.466 102.208  0.00  0.00    +0.150 HD
BRANCH  38  42
ATOM     42  CA  ASP A   1      13.341  55.298 104.730  0.00  0.00    +0.156 C 
BRANCH  42  43
ATOM     43  N   ASP A   1      12.237  55.833 105.505  0.00  0.00    -0.238 NA
ATOM     44  H   ASP A   1      11.549  55.172 105.918  0.00  0.00    +0.142 HD
ENDBRANCH  42  43
BRANCH  42  45
ATOM     45  CB  ASP A   1      14.127  54.245 105.518  0.00  0.00    +0.140 C 
BRANCH  45  46
ATOM     46  CG  ASP A   1      15.300  53.658 104.701  0.00  0.00    +0.367 C 
ATOM     47  OD2 ASP A   1      15.303  52.432 104.456  0.00  0.00    -0.246 OA
ATOM     48  OD1 ASP A   1      16.208  54.417 104.299  0.00  0.00    -0.246 OA
ENDBRANCH  45  46
ENDBRANCH  42  45
ENDBRANCH  38  42
ENDBRANCH  37  40
BRANCH  37  49
ATOM     49  CB  ILE A   2      12.152  55.043 100.161  0.00  0.00    +0.027 C 
ATOM     50  CG2 ILE A   2      11.553  54.297  98.947  0.00  0.00    +0.002 C 
BRANCH  49  51
ATOM     51  CG1 ILE A   2      11.099  55.965 100.821  0.00  0.00    +0.002 C 
ATOM     52  CD1 ILE A   2      10.455  56.920  99.875  0.00  0.00    +0.000 C 
ENDBRANCH  49  51
ENDBRANCH  37  49
ENDBRANCH  33  37
ENDBRANCH  32  34
BRANCH  32  53
ATOM     53  CB  ASN A   3      14.423  49.783 101.260  0.00  0.00    +0.114 C 
BRANCH  53  54
ATOM     54  CG  ASN A   3      15.379  48.616 100.905  0.00  0.00    +0.222 C 
ATOM     55  OD1 ASN A   3      15.362  47.612 101.587  0.00  0.00    -0.275 OA
ATOM     56  ND2 ASN A   3      16.213  48.778  99.897  0.00  0.00    -0.329 N 
ATOM     57 HD21 ASN A   3      16.893  48.028  99.659  0.00  0.00    +0.145 HD
ATOM     58 HD22 ASN A   3      16.191  49.656  99.340  0.00  0.00    +0.145 HD
ENDBRANCH  53  54
ENDBRANCH  32  53
ENDBRANCH  28  32
ENDBRANCH   1  30
BRANCH   1  59
ATOM     59  CB  TRP A   4      12.010  51.307  95.854  0.00  0.00    +0.057 C 
BRANCH  59  60
ATOM     60  CG  TRP A   4      11.538  50.931  94.464  0.00  0.00    -0.002 A 
ATOM     61  CD1 TRP A   4      11.554  49.687  93.882  0.00  0.00    +0.068 A 
ATOM     62  NE1 TRP A   4      10.990  49.743  92.629  0.00  0.00    -0.352 N 
ATOM     63  CE2 TRP A   4      10.597  51.033  92.377  0.00  0.00    +0.056 A 
ATOM     64  CZ2 TRP A   4       9.976  51.583  91.254  0.00  0.00    +0.017 A 
ATOM     65  CH2 TRP A   4       9.692  52.929  91.276  0.00  0.00    +0.001 A 
ATOM     66  CZ3 TRP A   4      10.017  53.728  92.384  0.00  0.00    +0.000 A 
ATOM     67  CE3 TRP A   4      10.635  53.181  93.504  0.00  0.00    +0.001 A 
ATOM     68  HE1 TRP A   4      10.879  48.939  91.979  0.00  0.00    +0.166 HD
ATOM     69  CD2 TRP A   4      10.933  51.810  93.511  0.00  0.00    +0.013 A 
ENDBRANCH  59  60
ENDBRANCH   1  59
TORSDOF 26
REMARK  Name = ../refined-set-2016/1ur9/1ur9_pocket.pdb
REMARK  225 active torsions:
REMARK  status: ('A' for Active; 'I' for Inactive)
REMARK    1  A    between atoms: _1  and  _3
REMARK    2  A    between atoms: _3  and  _4
REMARK    3  A    between atoms: _3  and  _6
REMARK    4  A    between atoms: _6  and  _7
REMARK    5  A    between atoms: _12  and  _13
REMARK    6  A    between atoms: _15  and  _17
REMARK    7  A    between atoms: _17  and  _18
REMARK    8  A    between atoms: _17  and  _20
REMARK    9  A    between atoms: _20  and  _21
REMARK   10  A    between atoms: _28  and  _29
REMARK   11  A    between atoms: _34  and  _36
REMARK   12  A    between atoms: _36  and  _37
REMARK   13  A    between atoms: _36  and  _39
REMARK   14  A    between atoms: _39  and  _40
REMARK   15  A    between atoms: _45  and  _47
REMARK   16  A    between atoms: _47  and  _48
REMARK   17  A    between atoms: _47  and  _50
REMARK   18  A    between atoms: _50  and  _51
REMARK   19  A    between atoms: _53  and  _55
REMARK   20  A    between atoms: _55  and  _56
REMARK   21  A    between atoms: _55  and  _58
REMARK   22  A    between atoms: _58  and  _59
REMARK   23  A    between atoms: _65  and  _67
REMARK   24  A    between atoms: _67  and  _68
REMARK   25  A    between atoms: _67  and  _70
REMARK   26  A    between atoms: _70  and  _71
REMARK   27  A    between atoms: _73  and  _75
REMARK   28  A    between atoms: _75  and  _76
REMARK   29  A    between atoms: _78  and  _80
REMARK   30  A    between atoms: _80  and  _81
REMARK   31  A    between atoms: _83  and  _85
REMARK   32  A    between atoms: _85  and  _86
REMARK   33  A    between atoms: _85  and  _88
REMARK   34  A    between atoms: _88  and  _89
REMARK   35  A    between atoms: _99  and  _101
REMARK   36  A    between atoms: _101  and  _102
REMARK   37  A    between atoms: _101  and  _104
REMARK   38  A    between atoms: _104  and  _105
REMARK   39  A    between atoms: _110  and  _111
REMARK   40  A    between atoms: _113  and  _115
REMARK   41  A    between atoms: _115  and  _116
REMARK   42  A    between atoms: _115  and  _118
REMARK   43  A    between atoms: _118  and  _119
REMARK   44  A    between atoms: _124  and  _125
REMARK   45  A    between atoms: _127  and  _129
REMARK   46  A    between atoms: _129  and  _130
REMARK   47  A    between atoms: _129  and  _132
REMARK   48  A    between atoms: _132  and  _133
REMARK   49  A    between atoms: _135  and  _137
REMARK   50  A    between atoms: _137  and  _138
REMARK   51  A    between atoms: _137  and  _140
REMARK   52  A    between atoms: _140  and  _141
REMARK   53  A    between atoms: _146  and  _148
REMARK   54  A    between atoms: _148  and  _149
REMARK   55  A    between atoms: _148  and  _151
REMARK   56  A    between atoms: _151  and  _152
REMARK   57  A    between atoms: _155  and  _157
REMARK   58  A    between atoms: _157  and  _158
REMARK   59  A    between atoms: _157  and  _160
REMARK   60  A    between atoms: _160  and  _161
REMARK   61  A    between atoms: _164  and  _166
REMARK   62  A    between atoms: _166  and  _167
REMARK   63  A    between atoms: _166  and  _169
REMARK   64  A    between atoms: _169  and  _170
REMARK   65  A    between atoms: _175  and  _177
REMARK   66  A    between atoms: _177  and  _178
REMARK   67  A    between atoms: _177  and  _180
REMARK   68  A    between atoms: _180  and  _181
REMARK   69  A    between atoms: _191  and  _193
REMARK   70  A    between atoms: _193  and  _194
REMARK   71  A    between atoms: _193  and  _196
REMARK   72  A    between atoms: _196  and  _197
REMARK   73  A    between atoms: _197  and  _198
REMARK   74  A    between atoms: _201  and  _203
REMARK   75  A    between atoms: _203  and  _204
REMARK   76  A    between atoms: _203  and  _206
REMARK   77  A    between atoms: _206  and  _207
REMARK   78  A    between atoms: _212  and  _213
REMARK   79  A    between atoms: _215  and  _217
REMARK   80  A    between atoms: _217  and  _218
REMARK   81  A    between atoms: _217  and  _220
REMARK   82  A    between atoms: _220  and  _221
REMARK   83  A    between atoms: _224  and  _226
REMARK   84  A    between atoms: _226  and  _227
REMARK   85  A    between atoms: _230  and  _232
REMARK   86  A    between atoms: _232  and  _233
REMARK   87  A    between atoms: _235  and  _237
REMARK   88  A    between atoms: _237  and  _238
REMARK   89  A    between atoms: _241  and  _243
REMARK   90  A    between atoms: _243  and  _244
REMARK   91  A    between atoms: _246  and  _248
REMARK   92  A    between atoms: _248  and  _249
REMARK   93  A    between atoms: _251  and  _253
REMARK   94  A    between atoms: _253  and  _254
REMARK   95  A    between atoms: _253  and  _256
REMARK   96  A    between atoms: _256  and  _257
REMARK   97  A    between atoms: _263  and  _265
REMARK   98  A    between atoms: _265  and  _266
REMARK   99  A    between atoms: _265  and  _268
REMARK  100  A    between atoms: _268  and  _269
REMARK  101  A    between atoms: _275  and  _277
REMARK  102  A    between atoms: _277  and  _278
REMARK  103  A    between atoms: _277  and  _280
REMARK  104  A    between atoms: _280  and  _281
REMARK  105  A    between atoms: _281  and  _282
REMARK  106  A    between atoms: _282  and  _283
REMARK  107  A    between atoms: _292  and  _294
REMARK  108  A    between atoms: _294  and  _295
REMARK  109  A    between atoms: _294  and  _297
REMARK  110  A    between atoms: _297  and  _298
REMARK  111  A    between atoms: _303  and  _305
REMARK  112  A    between atoms: _305  and  _306
REMARK  113  A    between atoms: _305  and  _308
REMARK  114  A    between atoms: _308  and  _309
REMARK  115  A    between atoms: _312  and  _314
REMARK  116  A    between atoms: _314  and  _315
REMARK  117  A    between atoms: _314  and  _317
REMARK  118  A    between atoms: _317  and  _318
REMARK  119  A    between atoms: _318  and  _319
REMARK  120  A    between atoms: _321  and  _323
REMARK  121  A    between atoms: _323  and  _324
REMARK  122  A    between atoms: _323  and  _326
REMARK  123  A    between atoms: _326  and  _327
REMARK  124  A    between atoms: _330  and  _332
REMARK  125  A    between atoms: _332  and  _333
REMARK  126  A    between atoms: _332  and  _335
REMARK  127  A    between atoms: _335  and  _336
REMARK  128  A    between atoms: _341  and  _342
REMARK  129  A    between atoms: _344  and  _346
REMARK  130  A    between atoms: _346  and  _347
REMARK  131  A    between atoms: _346  and  _349
REMARK  132  A    between atoms: _349  and  _350
REMARK  133  A    between atoms: _353  and  _355
REMARK  134  A    between atoms: _355  and  _356
REMARK  135  A    between atoms: _355  and  _358
REMARK  136  A    between atoms: _358  and  _359
REMARK  137  A    between atoms: _362  and  _364
REMARK  138  A    between atoms: _364  and  _365
REMARK  139  A    between atoms: _368  and  _370
REMARK  140  A    between atoms: _370  and  _371
REMARK  141  A    between atoms: _373  and  _375
REMARK  142  A    between atoms: _375  and  _376
REMARK  143  A    between atoms: _375  and  _378
REMARK  144  A    between atoms: _378  and  _379
REMARK  145  A    between atoms: _389  and  _391
REMARK  146  A    between atoms: _391  and  _392
REMARK  147  A    between atoms: _391  and  _394
REMARK  148  A    between atoms: _394  and  _395
REMARK  149  A    between atoms: _395  and  _396
REMARK  150  A    between atoms: _399  and  _401
REMARK  151  A    between atoms: _401  and  _402
REMARK  152  A    between atoms: _401  and  _404
REMARK  153  A    between atoms: _404  and  _405
REMARK  154  A    between atoms: _405  and  _406
REMARK  155  A    between atoms: _411  and  _413
REMARK  156  A    between atoms: _413  and  _414
REMARK  157  A    between atoms: _413  and  _416
REMARK  158  A    between atoms: _420  and  _421
REMARK  159  A    between atoms: _426  and  _428
REMARK  160  A    between atoms: _428  and  _429
REMARK  161  A    between atoms: _428  and  _431
REMARK  162  A    between atoms: _431  and  _432
REMARK  163  A    between atoms: _438  and  _440
REMARK  164  A    between atoms: _440  and  _441
REMARK  165  A    between atoms: _440  and  _443
REMARK  166  A    between atoms: _443  and  _444
REMARK  167  A    between atoms: _449  and  _450
REMARK  168  A    between atoms: _452  and  _454
REMARK  169  A    between atoms: _454  and  _455
REMARK  170  A    between atoms: _457  and  _459
REMARK  171  A    between atoms: _459  and  _460
REMARK  172  A    between atoms: _459  and  _462
REMARK  173  A    between atoms: _462  and  _463
REMARK  174  A    between atoms: _463  and  _464
REMARK  175  A    between atoms: _464  and  _465
REMARK  176  A    between atoms: _474  and  _476
REMARK  177  A    between atoms: _476  and  _477
REMARK  178  A    between atoms: _476  and  _479
REMARK  179  A    between atoms: _479  and  _480
REMARK  180  A    between atoms: _483  and  _485
REMARK  181  A    between atoms: _485  and  _486
REMARK  182  A    between atoms: _485  and  _488
REMARK  183  A    between atoms: _488  and  _489
REMARK  184  A    between atoms: _492  and  _494
REMARK  185  A    between atoms: _494  and  _495
REMARK  186  A    between atoms: _494  and  _497
REMARK  187  A    between atoms: _497  and  _498
REMARK  188  A    between atoms: _501  and  _503
REMARK  189  A    between atoms: _503  and  _504
REMARK  190  A    between atoms: _503  and  _506
REMARK  191  A    between atoms: _506  and  _507
REMARK  192  A    between atoms: _507  and  _508
REMARK  193  A    between atoms: _508  and  _509
REMARK  194  A    between atoms: _518  and  _520
REMARK  195  A    between atoms: _520  and  _521
REMARK  196  A    between atoms: _520  and  _523
REMARK  197  A    between atoms: _523  and  _524
REMARK  198  A    between atoms: _527  and  _529
REMARK  199  A    between atoms: _529  and  _530
REMARK  200  A    between atoms: _533  and  _535
REMARK  201  A    between atoms: _535  and  _536
REMARK  202  A    between atoms: _535  and  _538
REMARK  203  A    between atoms: _538  and  _539
REMARK  204  A    between atoms: _541  and  _543
REMARK  205  A    between atoms: _543  and  _544
REMARK  206  A    between atoms: _543  and  _546
REMARK  207  A    between atoms: _546  and  _547
REMARK  208  A    between atoms: _547  and  _548
REMARK  209  A    between atoms: _550  and  _552
REMARK  210  A    between atoms: _552  and  _553
REMARK  211  A    between atoms: _552  and  _555
REMARK  212  A    between atoms: _555  and  _556
REMARK  213  A    between atoms: _562  and  _564
REMARK  214  A    between atoms: _564  and  _565
REMARK  215  A    between atoms: _564  and  _567
REMARK  216  A    between atoms: _567  and  _568
REMARK  217  A    between atoms: _578  and  _580
REMARK  218  A    between atoms: _580  and  _581
REMARK  219  A    between atoms: _580  and  _583
REMARK  220  A    between atoms: _583  and  _584
REMARK  221  A    between atoms: _589  and  _591
REMARK  222  A    between atoms: _591  and  _592
REMARK  223  A    between atoms: _591  and  _594
REMARK  224  A    between atoms: _594  and  _595
REMARK  225  A    between atoms: _595  and  _596
REMARK                            x       y       z     vdW  Elec       q    Type
REMARK                         _______ _______ _______ _____ _____    ______ ____
ROOT
ATOM      1  CA  GLY A   3      20.936  52.747  97.891  0.00  0.00    +0.176 C 
ENDROOT
BRANCH   1   3
ATOM      2  C   ALA A   2      19.189  52.541  99.516  0.00  0.00    +0.241 C 
ATOM      3  N   GLY A   3      20.478  52.718  99.262  0.00  0.00    -0.295 N 
ATOM      4  H   GLY A   3      21.155  52.835 100.043  0.00  0.00    +0.150 HD
ATOM      5  O   ALA A   2      18.345  52.453  98.610  0.00  0.00    -0.273 OA
BRANCH   2   6
ATOM      6  CA  ALA A   2      18.770  52.520 100.985  0.00  0.00    +0.149 C 
ATOM      7  CB  ALA A   2      18.231  51.125 101.388  0.00  0.00    +0.031 C 
BRANCH   6  10
ATOM      8  C   ILE A   1      17.951  54.784 101.298  0.00  0.00    +0.238 C 
ATOM      9  O   ILE A   1      19.031  55.164 101.770  0.00  0.00    -0.274 OA
ATOM     10  N   ALA A   2      17.695  53.521 100.974  0.00  0.00    -0.297 N 
ATOM     11  H   ALA A   2      16.729  53.240 100.711  0.00  0.00    +0.150 HD
BRANCH   8  12
ATOM     12  CA  ILE A   1      16.789  55.756 101.143  0.00  0.00    +0.145 C 
BRANCH  12  13
ATOM     13  N   ILE A   1      17.088  56.863 102.038  0.00  0.00    -0.238 NA
ATOM     14  H   ILE A   1      18.057  57.237 102.095  0.00  0.00    +0.142 HD
ENDBRANCH  12  13
BRANCH  12  15
ATOM     15  CB  ILE A   1      16.681  56.137  99.626  0.00  0.00    +0.025 C 
ATOM     16  CG2 ILE A   1      15.668  57.288  99.430  0.00  0.00    +0.002 C 
BRANCH  15  17
ATOM     17  CG1 ILE A   1      18.055  56.488  99.054  0.00  0.00    +0.002 C 
ATOM     18  CD1 ILE A   1      18.062  56.545  97.536  0.00  0.00    +0.000 C 
ENDBRANCH  15  17
ENDBRANCH  12  15
ENDBRANCH   8  12
ENDBRANCH   6  10
ENDBRANCH   2   6
ENDBRANCH   1   3
BRANCH   1  19
ATOM     19  C   GLY A   3      21.756  51.527  97.531  0.00  0.00    +0.243 C 
ATOM     20  O   GLY A   3      22.385  50.917  98.385  0.00  0.00    -0.273 OA
ATOM     21  N   ALA A   4      21.755  51.175  96.255  0.00  0.00    -0.297 N 
ATOM     22  H   ALA A   4      21.194  51.721  95.570  0.00  0.00    +0.150 HD
BRANCH  21  23
ATOM     23  CA  ALA A   4      22.536  50.025  95.801  0.00  0.00    +0.149 C 
ATOM     24  CB  ALA A   4      22.363  49.827  94.284  0.00  0.00    +0.031 C 
BRANCH  23  25
ATOM     25  C   ALA A   4      24.018  50.208  96.136  0.00  0.00    +0.241 C 
ATOM     26  N   GLY A   5      24.661  49.108  96.498  0.00  0.00    -0.295 N 
ATOM     27  H   GLY A   5      24.146  48.206  96.552  0.00  0.00    +0.150 HD
ATOM     28  O   ALA A   4      24.562  51.320  96.071  0.00  0.00    -0.273 OA
BRANCH  26  29
ATOM     29  CA  GLY A   5      26.075  49.146  96.820  0.00  0.00    +0.176 C 
BRANCH  29  30
ATOM     30  C   GLY A   5      26.954  48.496  95.756  0.00  0.00    +0.243 C 
ATOM     31  O   GLY A   5      28.171  48.356  95.932  0.00  0.00    -0.273 OA
ATOM     32  N   GLY A   6      26.327  48.081  94.660  0.00  0.00    -0.296 N 
ATOM     33  H   GLY A   6      25.295  48.196  94.597  0.00  0.00    +0.150 HD
BRANCH  32  34
ATOM     34  CA  GLY A   6      27.038  47.470  93.543  0.00  0.00    +0.163 C 
BRANCH  34  35
ATOM     35  C   GLY A   6      26.723  48.258  92.274  0.00  0.00    +0.229 C 
ATOM     36  O   GLY A   6      25.605  48.776  92.101  0.00  0.00    -0.286 OA
ENDBRANCH  34  35
ENDBRANCH  32  34
ENDBRANCH  29  30
ENDBRANCH  26  29
ENDBRANCH  23  25
ENDBRANCH  21  23
ENDBRANCH   1  19
TORSDOF 14
REMARK  Name = ../refined-set-2016/1ur9/1ur9_pocket.pdb
REMARK  225 active torsions:
REMARK  status: ('A' for Active; 'I' for Inactive)
REMARK    1  A    between atoms: _1  and  _3
REMARK    2  A    between atoms: _3  and  _4
REMARK    3  A    between atoms: _3  and  _6
REMARK    4  A    between atoms: _6  and  _7
REMARK    5  A    between atoms: _12  and  _13
REMARK    6  A    between atoms: _15  and  _17
REMARK    7  A    between atoms: _17  and  _18
REMARK    8  A    between atoms: _17  and  _20
REMARK    9  A    between atoms: _20  and  _21
REMARK   10  A    between atoms: _28  and  _29
REMARK   11  A    between atoms: _34  and  _36
REMARK   12  A    between atoms: _36  and  _37
REMARK   13  A    between atoms: _36  and  _39
REMARK   14  A    between atoms: _39  and  _40
REMARK   15  A    between atoms: _45  and  _47
REMARK   16  A    between atoms: _47  and  _48
REMARK   17  A    between atoms: _47  and  _50
REMARK   18  A    between atoms: _50  and  _51
REMARK   19  A    between atoms: _53  and  _55
REMARK   20  A    between atoms: _55  and  _56
REMARK   21  A    between atoms: _55  and  _58
REMARK   22  A    between atoms: _58  and  _59
REMARK   23  A    between atoms: _65  and  _67
REMARK   24  A    between atoms: _67  and  _68
REMARK   25  A    between atoms: _67  and  _70
REMARK   26  A    between atoms: _70  and  _71
REMARK   27  A    between atoms: _73  and  _75
REMARK   28  A    between atoms: _75  and  _76
REMARK   29  A    between atoms: _78  and  _80
REMARK   30  A    between atoms: _80  and  _81
REMARK   31  A    between atoms: _83  and  _85
REMARK   32  A    between atoms: _85  and  _86
REMARK   33  A    between atoms: _85  and  _88
REMARK   34  A    between atoms: _88  and  _89
REMARK   35  A    between atoms: _99  and  _101
REMARK   36  A    between atoms: _101  and  _102
REMARK   37  A    between atoms: _101  and  _104
REMARK   38  A    between atoms: _104  and  _105
REMARK   39  A    between atoms: _110  and  _111
REMARK   40  A    between atoms: _113  and  _115
REMARK   41  A    between atoms: _115  and  _116
REMARK   42  A    between atoms: _115  and  _118
REMARK   43  A    between atoms: _118  and  _119
REMARK   44  A    between atoms: _124  and  _125
REMARK   45  A    between atoms: _127  and  _129
REMARK   46  A    between atoms: _129  and  _130
REMARK   47  A    between atoms: _129  and  _132
REMARK   48  A    between atoms: _132  and  _133
REMARK   49  A    between atoms: _135  and  _137
REMARK   50  A    between atoms: _137  and  _138
REMARK   51  A    between atoms: _137  and  _140
REMARK   52  A    between atoms: _140  and  _141
REMARK   53  A    between atoms: _146  and  _148
REMARK   54  A    between atoms: _148  and  _149
REMARK   55  A    between atoms: _148  and  _151
REMARK   56  A    between atoms: _151  and  _152
REMARK   57  A    between atoms: _155  and  _157
REMARK   58  A    between atoms: _157  and  _158
REMARK   59  A    between atoms: _157  and  _160
REMARK   60  A    between atoms: _160  and  _161
REMARK   61  A    between atoms: _164  and  _166
REMARK   62  A    between atoms: _166  and  _167
REMARK   63  A    between atoms: _166  and  _169
REMARK   64  A    between atoms: _169  and  _170
REMARK   65  A    between atoms: _175  and  _177
REMARK   66  A    between atoms: _177  and  _178
REMARK   67  A    between atoms: _177  and  _180
REMARK   68  A    between atoms: _180  and  _181
REMARK   69  A    between atoms: _191  and  _193
REMARK   70  A    between atoms: _193  and  _194
REMARK   71  A    between atoms: _193  and  _196
REMARK   72  A    between atoms: _196  and  _197
REMARK   73  A    between atoms: _197  and  _198
REMARK   74  A    between atoms: _201  and  _203
REMARK   75  A    between atoms: _203  and  _204
REMARK   76  A    between atoms: _203  and  _206
REMARK   77  A    between atoms: _206  and  _207
REMARK   78  A    between atoms: _212  and  _213
REMARK   79  A    between atoms: _215  and  _217
REMARK   80  A    between atoms: _217  and  _218
REMARK   81  A    between atoms: _217  and  _220
REMARK   82  A    between atoms: _220  and  _221
REMARK   83  A    between atoms: _224  and  _226
REMARK   84  A    between atoms: _226  and  _227
REMARK   85  A    between atoms: _230  and  _232
REMARK   86  A    between atoms: _232  and  _233
REMARK   87  A    between atoms: _235  and  _237
REMARK   88  A    between atoms: _237  and  _238
REMARK   89  A    between atoms: _241  and  _243
REMARK   90  A    between atoms: _243  and  _244
REMARK   91  A    between atoms: _246  and  _248
REMARK   92  A    between atoms: _248  and  _249
REMARK   93  A    between atoms: _251  and  _253
REMARK   94  A    between atoms: _253  and  _254
REMARK   95  A    between atoms: _253  and  _256
REMARK   96  A    between atoms: _256  and  _257
REMARK   97  A    between atoms: _263  and  _265
REMARK   98  A    between atoms: _265  and  _266
REMARK   99  A    between atoms: _265  and  _268
REMARK  100  A    between atoms: _268  and  _269
REMARK  101  A    between atoms: _275  and  _277
REMARK  102  A    between atoms: _277  and  _278
REMARK  103  A    between atoms: _277  and  _280
REMARK  104  A    between atoms: _280  and  _281
REMARK  105  A    between atoms: _281  and  _282
REMARK  106  A    between atoms: _282  and  _283
REMARK  107  A    between atoms: _292  and  _294
REMARK  108  A    between atoms: _294  and  _295
REMARK  109  A    between atoms: _294  and  _297
REMARK  110  A    between atoms: _297  and  _298
REMARK  111  A    between atoms: _303  and  _305
REMARK  112  A    between atoms: _305  and  _306
REMARK  113  A    between atoms: _305  and  _308
REMARK  114  A    between atoms: _308  and  _309
REMARK  115  A    between atoms: _312  and  _314
REMARK  116  A    between atoms: _314  and  _315
REMARK  117  A    between atoms: _314  and  _317
REMARK  118  A    between atoms: _317  and  _318
REMARK  119  A    between atoms: _318  and  _319
REMARK  120  A    between atoms: _321  and  _323
REMARK  121  A    between atoms: _323  and  _324
REMARK  122  A    between atoms: _323  and  _326
REMARK  123  A    between atoms: _326  and  _327
REMARK  124  A    between atoms: _330  and  _332
REMARK  125  A    between atoms: _332  and  _333
REMARK  126  A    between atoms: _332  and  _335
REMARK  127  A    between atoms: _335  and  _336
REMARK  128  A    between atoms: _341  and  _342
REMARK  129  A    between atoms: _344  and  _346
REMARK  130  A    between atoms: _346  and  _347
REMARK  131  A    between atoms: _346  and  _349
REMARK  132  A    between atoms: _349  and  _350
REMARK  133  A    between atoms: _353  and  _355
REMARK  134  A    between atoms: _355  and  _356
REMARK  135  A    between atoms: _355  and  _358
REMARK  136  A    between atoms: _358  and  _359
REMARK  137  A    between atoms: _362  and  _364
REMARK  138  A    between atoms: _364  and  _365
REMARK  139  A    between atoms: _368  and  _370
REMARK  140  A    between atoms: _370  and  _371
REMARK  141  A    between atoms: _373  and  _375
REMARK  142  A    between atoms: _375  and  _376
REMARK  143  A    between atoms: _375  and  _378
REMARK  144  A    between atoms: _378  and  _379
REMARK  145  A    between atoms: _389  and  _391
REMARK  146  A    between atoms: _391  and  _392
REMARK  147  A    between atoms: _391  and  _394
REMARK  148  A    between atoms: _394  and  _395
REMARK  149  A    between atoms: _395  and  _396
REMARK  150  A    between atoms: _399  and  _401
REMARK  151  A    between atoms: _401  and  _402
REMARK  152  A    between atoms: _401  and  _404
REMARK  153  A    between atoms: _404  and  _405
REMARK  154  A    between atoms: _405  and  _406
REMARK  155  A    between atoms: _411  and  _413
REMARK  156  A    between atoms: _413  and  _414
REMARK  157  A    between atoms: _413  and  _416
REMARK  158  A    between atoms: _420  and  _421
REMARK  159  A    between atoms: _426  and  _428
REMARK  160  A    between atoms: _428  and  _429
REMARK  161  A    between atoms: _428  and  _431
REMARK  162  A    between atoms: _431  and  _432
REMARK  163  A    between atoms: _438  and  _440
REMARK  164  A    between atoms: _440  and  _441
REMARK  165  A    between atoms: _440  and  _443
REMARK  166  A    between atoms: _443  and  _444
REMARK  167  A    between atoms: _449  and  _450
REMARK  168  A    between atoms: _452  and  _454
REMARK  169  A    between atoms: _454  and  _455
REMARK  170  A    between atoms: _457  and  _459
REMARK  171  A    between atoms: _459  and  _460
REMARK  172  A    between atoms: _459  and  _462
REMARK  173  A    between atoms: _462  and  _463
REMARK  174  A    between atoms: _463  and  _464
REMARK  175  A    between atoms: _464  and  _465
REMARK  176  A    between atoms: _474  and  _476
REMARK  177  A    between atoms: _476  and  _477
REMARK  178  A    between atoms: _476  and  _479
REMARK  179  A    between atoms: _479  and  _480
REMARK  180  A    between atoms: _483  and  _485
REMARK  181  A    between atoms: _485  and  _486
REMARK  182  A    between atoms: _485  and  _488
REMARK  183  A    between atoms: _488  and  _489
REMARK  184  A    between atoms: _492  and  _494
REMARK  185  A    between atoms: _494  and  _495
REMARK  186  A    between atoms: _494  and  _497
REMARK  187  A    between atoms: _497  and  _498
REMARK  188  A    between atoms: _501  and  _503
REMARK  189  A    between atoms: _503  and  _504
REMARK  190  A    between atoms: _503  and  _506
REMARK  191  A    between atoms: _506  and  _507
REMARK  192  A    between atoms: _507  and  _508
REMARK  193  A    between atoms: _508  and  _509
REMARK  194  A    between atoms: _518  and  _520
REMARK  195  A    between atoms: _520  and  _521
REMARK  196  A    between atoms: _520  and  _523
REMARK  197  A    between atoms: _523  and  _524
REMARK  198  A    between atoms: _527  and  _529
REMARK  199  A    between atoms: _529  and  _530
REMARK  200  A    between atoms: _533  and  _535
REMARK  201  A    between atoms: _535  and  _536
REMARK  202  A    between atoms: _535  and  _538
REMARK  203  A    between atoms: _538  and  _539
REMARK  204  A    between atoms: _541  and  _543
REMARK  205  A    between atoms: _543  and  _544
REMARK  206  A    between atoms: _543  and  _546
REMARK  207  A    between atoms: _546  and  _547
REMARK  208  A    between atoms: _547  and  _548
REMARK  209  A    between atoms: _550  and  _552
REMARK  210  A    between atoms: _552  and  _553
REMARK  211  A    between atoms: _552  and  _555
REMARK  212  A    between atoms: _555  and  _556
REMARK  213  A    between atoms: _562  and  _564
REMARK  214  A    between atoms: _564  and  _565
REMARK  215  A    between atoms: _564  and  _567
REMARK  216  A    between atoms: _567  and  _568
REMARK  217  A    between atoms: _578  and  _580
REMARK  218  A    between atoms: _580  and  _581
REMARK  219  A    between atoms: _580  and  _583
REMARK  220  A    between atoms: _583  and  _584
REMARK  221  A    between atoms: _589  and  _591
REMARK  222  A    between atoms: _591  and  _592
REMARK  223  A    between atoms: _591  and  _594
REMARK  224  A    between atoms: _594  and  _595
REMARK  225  A    between atoms: _595  and  _596
REMARK                            x       y       z     vdW  Elec       q    Type
REMARK                         _______ _______ _______ _____ _____    ______ ____
ROOT
ATOM      1  C   PHE A   1      23.590  47.634  88.584  0.00  0.00    +0.239 C 
ATOM      2  N   PHE A   2      23.129  47.563  89.823  0.00  0.00    -0.298 N 
ATOM      3  H   PHE A   2      23.677  47.080  90.563  0.00  0.00    +0.150 HD
ATOM      4  O   PHE A   1      22.963  48.201  87.684  0.00  0.00    -0.274 OA
ENDROOT
BRANCH   1   5
ATOM      5  CA  PHE A   1      24.956  47.012  88.297  0.00  0.00    +0.149 C 
BRANCH   5   6
ATOM      6  N   PHE A   1      26.024  47.467  89.188  0.00  0.00    -0.238 NA
ATOM      7  H   PHE A   1      26.526  46.782  89.788  0.00  0.00    +0.142 HD
ENDBRANCH   5   6
BRANCH   5   8
ATOM      8  CB  PHE A   1      24.919  45.487  88.314  0.00  0.00    +0.053 C 
BRANCH   8   9
ATOM      9  CG  PHE A   1      26.210  44.874  87.829  0.00  0.00    -0.020 A 
ATOM     10  CD2 PHE A   1      27.111  44.286  88.721  0.00  0.00    -0.004 A 
ATOM     11  CE2 PHE A   1      28.339  43.767  88.263  0.00  0.00    -0.000 A 
ATOM     12  CZ  PHE A   1      28.658  43.839  86.907  0.00  0.00    -0.000 A 
ATOM     13  CE1 PHE A   1      27.762  44.422  86.022  0.00  0.00    -0.000 A 
ATOM     14  CD1 PHE A   1      26.551  44.933  86.480  0.00  0.00    -0.004 A 
ENDBRANCH   8   9
ENDBRANCH   5   8
ENDBRANCH   1   5
BRANCH   2  15
ATOM     15  CA  PHE A   2      21.843  48.172  90.133  0.00  0.00    +0.141 C 
BRANCH  15  16
ATOM     16  C   PHE A   2      21.971  49.673  90.275  0.00  0.00    +0.227 C 
ATOM     17  O   PHE A   2      21.036  50.416  89.973  0.00  0.00    -0.286 OA
ENDBRANCH  15  16
BRANCH  15  18
ATOM     18  CB  PHE A   2      21.250  47.563  91.388  0.00  0.00    +0.054 C 
BRANCH  18  19
ATOM     19  CG  PHE A   2      20.681  46.208  91.155  0.00  0.00    -0.020 A 
ATOM     20  CD2 PHE A   2      21.315  45.085  91.649  0.00  0.00    -0.004 A 
ATOM     21  CE2 PHE A   2      20.813  43.817  91.371  0.00  0.00    -0.000 A 
ATOM     22  CZ  PHE A   2      19.659  43.669  90.595  0.00  0.00    -0.000 A 
ATOM     23  CE1 PHE A   2      19.018  44.789  90.098  0.00  0.00    -0.000 A 
ATOM     24  CD1 PHE A   2      19.533  46.054  90.381  0.00  0.00    -0.004 A 
ENDBRANCH  18  19
ENDBRANCH  15  18
ENDBRANCH   2  15
TORSDOF 8
REMARK  Name = ../refined-set-2016/1ur9/1ur9_pocket.pdb
REMARK  225 active torsions:
REMARK  status: ('A' for Active; 'I' for Inactive)
REMARK    1  A    between atoms: _1  and  _3
REMARK    2  A    between atoms: _3  and  _4
REMARK    3  A    between atoms: _3  and  _6
REMARK    4  A    between atoms: _6  and  _7
REMARK    5  A    between atoms: _12  and  _13
REMARK    6  A    between atoms: _15  and  _17
REMARK    7  A    between atoms: _17  and  _18
REMARK    8  A    between atoms: _17  and  _20
REMARK    9  A    between atoms: _20  and  _21
REMARK   10  A    between atoms: _28  and  _29
REMARK   11  A    between atoms: _34  and  _36
REMARK   12  A    between atoms: _36  and  _37
REMARK   13  A    between atoms: _36  and  _39
REMARK   14  A    between atoms: _39  and  _40
REMARK   15  A    between atoms: _45  and  _47
REMARK   16  A    between atoms: _47  and  _48
REMARK   17  A    between atoms: _47  and  _50
REMARK   18  A    between atoms: _50  and  _51
REMARK   19  A    between atoms: _53  and  _55
REMARK   20  A    between atoms: _55  and  _56
REMARK   21  A    between atoms: _55  and  _58
REMARK   22  A    between atoms: _58  and  _59
REMARK   23  A    between atoms: _65  and  _67
REMARK   24  A    between atoms: _67  and  _68
REMARK   25  A    between atoms: _67  and  _70
REMARK   26  A    between atoms: _70  and  _71
REMARK   27  A    between atoms: _73  and  _75
REMARK   28  A    between atoms: _75  and  _76
REMARK   29  A    between atoms: _78  and  _80
REMARK   30  A    between atoms: _80  and  _81
REMARK   31  A    between atoms: _83  and  _85
REMARK   32  A    between atoms: _85  and  _86
REMARK   33  A    between atoms: _85  and  _88
REMARK   34  A    between atoms: _88  and  _89
REMARK   35  A    between atoms: _99  and  _101
REMARK   36  A    between atoms: _101  and  _102
REMARK   37  A    between atoms: _101  and  _104
REMARK   38  A    between atoms: _104  and  _105
REMARK   39  A    between atoms: _110  and  _111
REMARK   40  A    between atoms: _113  and  _115
REMARK   41  A    between atoms: _115  and  _116
REMARK   42  A    between atoms: _115  and  _118
REMARK   43  A    between atoms: _118  and  _119
REMARK   44  A    between atoms: _124  and  _125
REMARK   45  A    between atoms: _127  and  _129
REMARK   46  A    between atoms: _129  and  _130
REMARK   47  A    between atoms: _129  and  _132
REMARK   48  A    between atoms: _132  and  _133
REMARK   49  A    between atoms: _135  and  _137
REMARK   50  A    between atoms: _137  and  _138
REMARK   51  A    between atoms: _137  and  _140
REMARK   52  A    between atoms: _140  and  _141
REMARK   53  A    between atoms: _146  and  _148
REMARK   54  A    between atoms: _148  and  _149
REMARK   55  A    between atoms: _148  and  _151
REMARK   56  A    between atoms: _151  and  _152
REMARK   57  A    between atoms: _155  and  _157
REMARK   58  A    between atoms: _157  and  _158
REMARK   59  A    between atoms: _157  and  _160
REMARK   60  A    between atoms: _160  and  _161
REMARK   61  A    between atoms: _164  and  _166
REMARK   62  A    between atoms: _166  and  _167
REMARK   63  A    between atoms: _166  and  _169
REMARK   64  A    between atoms: _169  and  _170
REMARK   65  A    between atoms: _175  and  _177
REMARK   66  A    between atoms: _177  and  _178
REMARK   67  A    between atoms: _177  and  _180
REMARK   68  A    between atoms: _180  and  _181
REMARK   69  A    between atoms: _191  and  _193
REMARK   70  A    between atoms: _193  and  _194
REMARK   71  A    between atoms: _193  and  _196
REMARK   72  A    between atoms: _196  and  _197
REMARK   73  A    between atoms: _197  and  _198
REMARK   74  A    between atoms: _201  and  _203
REMARK   75  A    between atoms: _203  and  _204
REMARK   76  A    between atoms: _203  and  _206
REMARK   77  A    between atoms: _206  and  _207
REMARK   78  A    between atoms: _212  and  _213
REMARK   79  A    between atoms: _215  and  _217
REMARK   80  A    between atoms: _217  and  _218
REMARK   81  A    between atoms: _217  and  _220
REMARK   82  A    between atoms: _220  and  _221
REMARK   83  A    between atoms: _224  and  _226
REMARK   84  A    between atoms: _226  and  _227
REMARK   85  A    between atoms: _230  and  _232
REMARK   86  A    between atoms: _232  and  _233
REMARK   87  A    between atoms: _235  and  _237
REMARK   88  A    between atoms: _237  and  _238
REMARK   89  A    between atoms: _241  and  _243
REMARK   90  A    between atoms: _243  and  _244
REMARK   91  A    between atoms: _246  and  _248
REMARK   92  A    between atoms: _248  and  _249
REMARK   93  A    between atoms: _251  and  _253
REMARK   94  A    between atoms: _253  and  _254
REMARK   95  A    between atoms: _253  and  _256
REMARK   96  A    between atoms: _256  and  _257
REMARK   97  A    between atoms: _263  and  _265
REMARK   98  A    between atoms: _265  and  _266
REMARK   99  A    between atoms: _265  and  _268
REMARK  100  A    between atoms: _268  and  _269
REMARK  101  A    between atoms: _275  and  _277
REMARK  102  A    between atoms: _277  and  _278
REMARK  103  A    between atoms: _277  and  _280
REMARK  104  A    between atoms: _280  and  _281
REMARK  105  A    between atoms: _281  and  _282
REMARK  106  A    between atoms: _282  and  _283
REMARK  107  A    between atoms: _292  and  _294
REMARK  108  A    between atoms: _294  and  _295
REMARK  109  A    between atoms: _294  and  _297
REMARK  110  A    between atoms: _297  and  _298
REMARK  111  A    between atoms: _303  and  _305
REMARK  112  A    between atoms: _305  and  _306
REMARK  113  A    between atoms: _305  and  _308
REMARK  114  A    between atoms: _308  and  _309
REMARK  115  A    between atoms: _312  and  _314
REMARK  116  A    between atoms: _314  and  _315
REMARK  117  A    between atoms: _314  and  _317
REMARK  118  A    between atoms: _317  and  _318
REMARK  119  A    between atoms: _318  and  _319
REMARK  120  A    between atoms: _321  and  _323
REMARK  121  A    between atoms: _323  and  _324
REMARK  122  A    between atoms: _323  and  _326
REMARK  123  A    between atoms: _326  and  _327
REMARK  124  A    between atoms: _330  and  _332
REMARK  125  A    between atoms: _332  and  _333
REMARK  126  A    between atoms: _332  and  _335
REMARK  127  A    between atoms: _335  and  _336
REMARK  128  A    between atoms: _341  and  _342
REMARK  129  A    between atoms: _344  and  _346
REMARK  130  A    between atoms: _346  and  _347
REMARK  131  A    between atoms: _346  and  _349
REMARK  132  A    between atoms: _349  and  _350
REMARK  133  A    between atoms: _353  and  _355
REMARK  134  A    between atoms: _355  and  _356
REMARK  135  A    between atoms: _355  and  _358
REMARK  136  A    between atoms: _358  and  _359
REMARK  137  A    between atoms: _362  and  _364
REMARK  138  A    between atoms: _364  and  _365
REMARK  139  A    between atoms: _368  and  _370
REMARK  140  A    between atoms: _370  and  _371
REMARK  141  A    between atoms: _373  and  _375
REMARK  142  A    between atoms: _375  and  _376
REMARK  143  A    between atoms: _375  and  _378
REMARK  144  A    between atoms: _378  and  _379
REMARK  145  A    between atoms: _389  and  _391
REMARK  146  A    between atoms: _391  and  _392
REMARK  147  A    between atoms: _391  and  _394
REMARK  148  A    between atoms: _394  and  _395
REMARK  149  A    between atoms: _395  and  _396
REMARK  150  A    between atoms: _399  and  _401
REMARK  151  A    between atoms: _401  and  _402
REMARK  152  A    between atoms: _401  and  _404
REMARK  153  A    between atoms: _404  and  _405
REMARK  154  A    between atoms: _405  and  _406
REMARK  155  A    between atoms: _411  and  _413
REMARK  156  A    between atoms: _413  and  _414
REMARK  157  A    between atoms: _413  and  _416
REMARK  158  A    between atoms: _420  and  _421
REMARK  159  A    between atoms: _426  and  _428
REMARK  160  A    between atoms: _428  and  _429
REMARK  161  A    between atoms: _428  and  _431
REMARK  162  A    between atoms: _431  and  _432
REMARK  163  A    between atoms: _438  and  _440
REMARK  164  A    between atoms: _440  and  _441
REMARK  165  A    between atoms: _440  and  _443
REMARK  166  A    between atoms: _443  and  _444
REMARK  167  A    between atoms: _449  and  _450
REMARK  168  A    between atoms: _452  and  _454
REMARK  169  A    between atoms: _454  and  _455
REMARK  170  A    between atoms: _457  and  _459
REMARK  171  A    between atoms: _459  and  _460
REMARK  172  A    between atoms: _459  and  _462
REMARK  173  A    between atoms: _462  and  _463
REMARK  174  A    between atoms: _463  and  _464
REMARK  175  A    between atoms: _464  and  _465
REMARK  176  A    between atoms: _474  and  _476
REMARK  177  A    between atoms: _476  and  _477
REMARK  178  A    between atoms: _476  and  _479
REMARK  179  A    between atoms: _479  and  _480
REMARK  180  A    between atoms: _483  and  _485
REMARK  181  A    between atoms: _485  and  _486
REMARK  182  A    between atoms: _485  and  _488
REMARK  183  A    between atoms: _488  and  _489
REMARK  184  A    between atoms: _492  and  _494
REMARK  185  A    between atoms: _494  and  _495
REMARK  186  A    between atoms: _494  and  _497
REMARK  187  A    between atoms: _497  and  _498
REMARK  188  A    between atoms: _501  and  _503
REMARK  189  A    between atoms: _503  and  _504
REMARK  190  A    between atoms: _503  and  _506
REMARK  191  A    between atoms: _506  and  _507
REMARK  192  A    between atoms: _507  and  _508
REMARK  193  A    between atoms: _508  and  _509
REMARK  194  A    between atoms: _518  and  _520
REMARK  195  A    between atoms: _520  and  _521
REMARK  196  A    between atoms: _520  and  _523
REMARK  197  A    between atoms: _523  and  _524
REMARK  198  A    between atoms: _527  and  _529
REMARK  199  A    between atoms: _529  and  _530
REMARK  200  A    between atoms: _533  and  _535
REMARK  201  A    between atoms: _535  and  _536
REMARK  202  A    between atoms: _535  and  _538
REMARK  203  A    between atoms: _538  and  _539
REMARK  204  A    between atoms: _541  and  _543
REMARK  205  A    between atoms: _543  and  _544
REMARK  206  A    between atoms: _543  and  _546
REMARK  207  A    between atoms: _546  and  _547
REMARK  208  A    between atoms: _547  and  _548
REMARK  209  A    between atoms: _550  and  _552
REMARK  210  A    between atoms: _552  and  _553
REMARK  211  A    between atoms: _552  and  _555
REMARK  212  A    between atoms: _555  and  _556
REMARK  213  A    between atoms: _562  and  _564
REMARK  214  A    between atoms: _564  and  _565
REMARK  215  A    between atoms: _564  and  _567
REMARK  216  A    between atoms: _567  and  _568
REMARK  217  A    between atoms: _578  and  _580
REMARK  218  A    between atoms: _580  and  _581
REMARK  219  A    between atoms: _580  and  _583
REMARK  220  A    between atoms: _583  and  _584
REMARK  221  A    between atoms: _589  and  _591
REMARK  222  A    between atoms: _591  and  _592
REMARK  223  A    between atoms: _591  and  _594
REMARK  224  A    between atoms: _594  and  _595
REMARK  225  A    between atoms: _595  and  _596
REMARK                            x       y       z     vdW  Elec       q    Type
REMARK                         _______ _______ _______ _____ _____    ______ ____
ROOT
ATOM      1  NE  ARG A   1      17.515  47.971  87.796  0.00  0.00    -0.265 N 
ATOM      2  CZ  ARG A   1      16.462  47.205  88.046  0.00  0.00    +0.342 C 
ATOM      3  NH2 ARG A   1      15.380  47.729  88.586  0.00  0.00    -0.292 N 
ATOM      4 HH21 ARG A   1      15.352  48.743  88.816  0.00  0.00    +0.255 HD
ATOM      5 HH22 ARG A   1      14.554  47.129  88.782  0.00  0.00    +0.255 HD
ATOM      6  NH1 ARG A   1      16.486  45.917  87.735  0.00  0.00    -0.292 N 
ATOM      7 HH11 ARG A   1      15.658  45.319  87.932  0.00  0.00    +0.255 HD
ATOM      8 HH12 ARG A   1      17.332  45.504  87.294  0.00  0.00    +0.255 HD
ATOM      9  HE  ARG A   1      18.351  47.526  87.366  0.00  0.00    +0.259 HD
ENDROOT
BRANCH   1  10
ATOM     10  CD  ARG A   1      17.573  49.400  88.087  0.00  0.00    +0.174 C 
BRANCH  10  11
ATOM     11  CG  ARG A   1      18.680  50.091  87.324  0.00  0.00    +0.045 C 
BRANCH  11  12
ATOM     12  CB  ARG A   1      18.786  51.566  87.741  0.00  0.00    +0.029 C 
BRANCH  12  13
ATOM     13  CA  ARG A   1      19.795  52.408  86.952  0.00  0.00    +0.133 C 
BRANCH  13  14
ATOM     14  N   ARG A   1      21.175  52.069  87.308  0.00  0.00    -0.239 NA
ATOM     15  H   ARG A   1      21.356  51.381  88.066  0.00  0.00    +0.142 HD
ENDBRANCH  13  14
BRANCH  13  16
ATOM     16  C   ARG A   1      19.482  53.878  87.221  0.00  0.00    +0.224 C 
ATOM     17  O   ARG A   1      18.746  54.507  86.462  0.00  0.00    -0.287 OA
ENDBRANCH  13  16
ENDBRANCH  12  13
ENDBRANCH  11  12
ENDBRANCH  10  11
ENDBRANCH   1  10
TORSDOF 6
REMARK  Name = ../refined-set-2016/1ur9/1ur9_pocket.pdb
REMARK  225 active torsions:
REMARK  status: ('A' for Active; 'I' for Inactive)
REMARK    1  A    between atoms: _1  and  _3
REMARK    2  A    between atoms: _3  and  _4
REMARK    3  A    between atoms: _3  and  _6
REMARK    4  A    between atoms: _6  and  _7
REMARK    5  A    between atoms: _12  and  _13
REMARK    6  A    between atoms: _15  and  _17
REMARK    7  A    between atoms: _17  and  _18
REMARK    8  A    between atoms: _17  and  _20
REMARK    9  A    between atoms: _20  and  _21
REMARK   10  A    between atoms: _28  and  _29
REMARK   11  A    between atoms: _34  and  _36
REMARK   12  A    between atoms: _36  and  _37
REMARK   13  A    between atoms: _36  and  _39
REMARK   14  A    between atoms: _39  and  _40
REMARK   15  A    between atoms: _45  and  _47
REMARK   16  A    between atoms: _47  and  _48
REMARK   17  A    between atoms: _47  and  _50
REMARK   18  A    between atoms: _50  and  _51
REMARK   19  A    between atoms: _53  and  _55
REMARK   20  A    between atoms: _55  and  _56
REMARK   21  A    between atoms: _55  and  _58
REMARK   22  A    between atoms: _58  and  _59
REMARK   23  A    between atoms: _65  and  _67
REMARK   24  A    between atoms: _67  and  _68
REMARK   25  A    between atoms: _67  and  _70
REMARK   26  A    between atoms: _70  and  _71
REMARK   27  A    between atoms: _73  and  _75
REMARK   28  A    between atoms: _75  and  _76
REMARK   29  A    between atoms: _78  and  _80
REMARK   30  A    between atoms: _80  and  _81
REMARK   31  A    between atoms: _83  and  _85
REMARK   32  A    between atoms: _85  and  _86
REMARK   33  A    between atoms: _85  and  _88
REMARK   34  A    between atoms: _88  and  _89
REMARK   35  A    between atoms: _99  and  _101
REMARK   36  A    between atoms: _101  and  _102
REMARK   37  A    between atoms: _101  and  _104
REMARK   38  A    between atoms: _104  and  _105
REMARK   39  A    between atoms: _110  and  _111
REMARK   40  A    between atoms: _113  and  _115
REMARK   41  A    between atoms: _115  and  _116
REMARK   42  A    between atoms: _115  and  _118
REMARK   43  A    between atoms: _118  and  _119
REMARK   44  A    between atoms: _124  and  _125
REMARK   45  A    between atoms: _127  and  _129
REMARK   46  A    between atoms: _129  and  _130
REMARK   47  A    between atoms: _129  and  _132
REMARK   48  A    between atoms: _132  and  _133
REMARK   49  A    between atoms: _135  and  _137
REMARK   50  A    between atoms: _137  and  _138
REMARK   51  A    between atoms: _137  and  _140
REMARK   52  A    between atoms: _140  and  _141
REMARK   53  A    between atoms: _146  and  _148
REMARK   54  A    between atoms: _148  and  _149
REMARK   55  A    between atoms: _148  and  _151
REMARK   56  A    between atoms: _151  and  _152
REMARK   57  A    between atoms: _155  and  _157
REMARK   58  A    between atoms: _157  and  _158
REMARK   59  A    between atoms: _157  and  _160
REMARK   60  A    between atoms: _160  and  _161
REMARK   61  A    between atoms: _164  and  _166
REMARK   62  A    between atoms: _166  and  _167
REMARK   63  A    between atoms: _166  and  _169
REMARK   64  A    between atoms: _169  and  _170
REMARK   65  A    between atoms: _175  and  _177
REMARK   66  A    between atoms: _177  and  _178
REMARK   67  A    between atoms: _177  and  _180
REMARK   68  A    between atoms: _180  and  _181
REMARK   69  A    between atoms: _191  and  _193
REMARK   70  A    between atoms: _193  and  _194
REMARK   71  A    between atoms: _193  and  _196
REMARK   72  A    between atoms: _196  and  _197
REMARK   73  A    between atoms: _197  and  _198
REMARK   74  A    between atoms: _201  and  _203
REMARK   75  A    between atoms: _203  and  _204
REMARK   76  A    between atoms: _203  and  _206
REMARK   77  A    between atoms: _206  and  _207
REMARK   78  A    between atoms: _212  and  _213
REMARK   79  A    between atoms: _215  and  _217
REMARK   80  A    between atoms: _217  and  _218
REMARK   81  A    between atoms: _217  and  _220
REMARK   82  A    between atoms: _220  and  _221
REMARK   83  A    between atoms: _224  and  _226
REMARK   84  A    between atoms: _226  and  _227
REMARK   85  A    between atoms: _230  and  _232
REMARK   86  A    between atoms: _232  and  _233
REMARK   87  A    between atoms: _235  and  _237
REMARK   88  A    between atoms: _237  and  _238
REMARK   89  A    between atoms: _241  and  _243
REMARK   90  A    between atoms: _243  and  _244
REMARK   91  A    between atoms: _246  and  _248
REMARK   92  A    between atoms: _248  and  _249
REMARK   93  A    between atoms: _251  and  _253
REMARK   94  A    between atoms: _253  and  _254
REMARK   95  A    between atoms: _253  and  _256
REMARK   96  A    between atoms: _256  and  _257
REMARK   97  A    between atoms: _263  and  _265
REMARK   98  A    between atoms: _265  and  _266
REMARK   99  A    between atoms: _265  and  _268
REMARK  100  A    between atoms: _268  and  _269
REMARK  101  A    between atoms: _275  and  _277
REMARK  102  A    between atoms: _277  and  _278
REMARK  103  A    between atoms: _277  and  _280
REMARK  104  A    between atoms: _280  and  _281
REMARK  105  A    between atoms: _281  and  _282
REMARK  106  A    between atoms: _282  and  _283
REMARK  107  A    between atoms: _292  and  _294
REMARK  108  A    between atoms: _294  and  _295
REMARK  109  A    between atoms: _294  and  _297
REMARK  110  A    between atoms: _297  and  _298
REMARK  111  A    between atoms: _303  and  _305
REMARK  112  A    between atoms: _305  and  _306
REMARK  113  A    between atoms: _305  and  _308
REMARK  114  A    between atoms: _308  and  _309
REMARK  115  A    between atoms: _312  and  _314
REMARK  116  A    between atoms: _314  and  _315
REMARK  117  A    between atoms: _314  and  _317
REMARK  118  A    between atoms: _317  and  _318
REMARK  119  A    between atoms: _318  and  _319
REMARK  120  A    between atoms: _321  and  _323
REMARK  121  A    between atoms: _323  and  _324
REMARK  122  A    between atoms: _323  and  _326
REMARK  123  A    between atoms: _326  and  _327
REMARK  124  A    between atoms: _330  and  _332
REMARK  125  A    between atoms: _332  and  _333
REMARK  126  A    between atoms: _332  and  _335
REMARK  127  A    between atoms: _335  and  _336
REMARK  128  A    between atoms: _341  and  _342
REMARK  129  A    between atoms: _344  and  _346
REMARK  130  A    between atoms: _346  and  _347
REMARK  131  A    between atoms: _346  and  _349
REMARK  132  A    between atoms: _349  and  _350
REMARK  133  A    between atoms: _353  and  _355
REMARK  134  A    between atoms: _355  and  _356
REMARK  135  A    between atoms: _355  and  _358
REMARK  136  A    between atoms: _358  and  _359
REMARK  137  A    between atoms: _362  and  _364
REMARK  138  A    between atoms: _364  and  _365
REMARK  139  A    between atoms: _368  and  _370
REMARK  140  A    between atoms: _370  and  _371
REMARK  141  A    between atoms: _373  and  _375
REMARK  142  A    between atoms: _375  and  _376
REMARK  143  A    between atoms: _375  and  _378
REMARK  144  A    between atoms: _378  and  _379
REMARK  145  A    between atoms: _389  and  _391
REMARK  146  A    between atoms: _391  and  _392
REMARK  147  A    between atoms: _391  and  _394
REMARK  148  A    between atoms: _394  and  _395
REMARK  149  A    between atoms: _395  and  _396
REMARK  150  A    between atoms: _399  and  _401
REMARK  151  A    between atoms: _401  and  _402
REMARK  152  A    between atoms: _401  and  _404
REMARK  153  A    between atoms: _404  and  _405
REMARK  154  A    between atoms: _405  and  _406
REMARK  155  A    between atoms: _411  and  _413
REMARK  156  A    between atoms: _413  and  _414
REMARK  157  A    between atoms: _413  and  _416
REMARK  158  A    between atoms: _420  and  _421
REMARK  159  A    between atoms: _426  and  _428
REMARK  160  A    between atoms: _428  and  _429
REMARK  161  A    between atoms: _428  and  _431
REMARK  162  A    between atoms: _431  and  _432
REMARK  163  A    between atoms: _438  and  _440
REMARK  164  A    between atoms: _440  and  _441
REMARK  165  A    between atoms: _440  and  _443
REMARK  166  A    between atoms: _443  and  _444
REMARK  167  A    between atoms: _449  and  _450
REMARK  168  A    between atoms: _452  and  _454
REMARK  169  A    between atoms: _454  and  _455
REMARK  170  A    between atoms: _457  and  _459
REMARK  171  A    between atoms: _459  and  _460
REMARK  172  A    between atoms: _459  and  _462
REMARK  173  A    between atoms: _462  and  _463
REMARK  174  A    between atoms: _463  and  _464
REMARK  175  A    between atoms: _464  and  _465
REMARK  176  A    between atoms: _474  and  _476
REMARK  177  A    between atoms: _476  and  _477
REMARK  178  A    between atoms: _476  and  _479
REMARK  179  A    between atoms: _479  and  _480
REMARK  180  A    between atoms: _483  and  _485
REMARK  181  A    between atoms: _485  and  _486
REMARK  182  A    between atoms: _485  and  _488
REMARK  183  A    between atoms: _488  and  _489
REMARK  184  A    between atoms: _492  and  _494
REMARK  185  A    between atoms: _494  and  _495
REMARK  186  A    between atoms: _494  and  _497
REMARK  187  A    between atoms: _497  and  _498
REMARK  188  A    between atoms: _501  and  _503
REMARK  189  A    between atoms: _503  and  _504
REMARK  190  A    between atoms: _503  and  _506
REMARK  191  A    between atoms: _506  and  _507
REMARK  192  A    between atoms: _507  and  _508
REMARK  193  A    between atoms: _508  and  _509
REMARK  194  A    between atoms: _518  and  _520
REMARK  195  A    between atoms: _520  and  _521
REMARK  196  A    between atoms: _520  and  _523
REMARK  197  A    between atoms: _523  and  _524
REMARK  198  A    between atoms: _527  and  _529
REMARK  199  A    between atoms: _529  and  _530
REMARK  200  A    between atoms: _533  and  _535
REMARK  201  A    between atoms: _535  and  _536
REMARK  202  A    between atoms: _535  and  _538
REMARK  203  A    between atoms: _538  and  _539
REMARK  204  A    between atoms: _541  and  _543
REMARK  205  A    between atoms: _543  and  _544
REMARK  206  A    between atoms: _543  and  _546
REMARK  207  A    between atoms: _546  and  _547
REMARK  208  A    between atoms: _547  and  _548
REMARK  209  A    between atoms: _550  and  _552
REMARK  210  A    between atoms: _552  and  _553
REMARK  211  A    between atoms: _552  and  _555
REMARK  212  A    between atoms: _555  and  _556
REMARK  213  A    between atoms: _562  and  _564
REMARK  214  A    between atoms: _564  and  _565
REMARK  215  A    between atoms: _564  and  _567
REMARK  216  A    between atoms: _567  and  _568
REMARK  217  A    between atoms: _578  and  _580
REMARK  218  A    between atoms: _580  and  _581
REMARK  219  A    between atoms: _580  and  _583
REMARK  220  A    between atoms: _583  and  _584
REMARK  221  A    between atoms: _589  and  _591
REMARK  222  A    between atoms: _591  and  _592
REMARK  223  A    between atoms: _591  and  _594
REMARK  224  A    between atoms: _594  and  _595
REMARK  225  A    between atoms: _595  and  _596
REMARK                            x       y       z     vdW  Elec       q    Type
REMARK                         _______ _______ _______ _____ _____    ______ ____
ROOT
ATOM      1  CA  TYR A   5      26.963  43.947 101.174  0.00  0.00    +0.153 C 
ENDROOT
BRANCH   1   4
ATOM      2  C   THR A   4      27.791  46.273 101.221  0.00  0.00    +0.243 C 
ATOM      3  O   THR A   4      28.668  46.034 102.062  0.00  0.00    -0.273 OA
ATOM      4  N   TYR A   5      26.927  45.357 100.774  0.00  0.00    -0.297 N 
ATOM      5  H   TYR A   5      26.189  45.661 100.107  0.00  0.00    +0.150 HD
BRANCH   2   6
ATOM      6  CA  THR A   4      27.587  47.667 100.623  0.00  0.00    +0.176 C 
BRANCH   6   8
ATOM      7  C   MET A   3      25.181  47.832 100.312  0.00  0.00    +0.241 C 
ATOM      8  N   THR A   4      26.285  48.176 100.975  0.00  0.00    -0.295 N 
ATOM      9  H   THR A   4      26.204  48.835 101.775  0.00  0.00    +0.150 HD
ATOM     10  O   MET A   3      25.191  47.109  99.333  0.00  0.00    -0.273 OA
BRANCH   7  11
ATOM     11  CA  MET A   3      23.891  48.470 100.809  0.00  0.00    +0.149 C 
BRANCH  11  14
ATOM     12  C   LEU A   2      24.539  50.747 101.261  0.00  0.00    +0.241 C 
ATOM     13  O   LEU A   2      25.058  50.412 102.287  0.00  0.00    -0.273 OA
ATOM     14  N   MET A   3      23.940  49.881 100.451  0.00  0.00    -0.297 N 
ATOM     15  H   MET A   3      23.507  50.209  99.564  0.00  0.00    +0.150 HD
BRANCH  12  16
ATOM     16  CA  LEU A   2      24.583  52.199 100.840  0.00  0.00    +0.149 C 
BRANCH  16  18
ATOM     17  C   ASN A   1      22.773  53.209 102.123  0.00  0.00    +0.239 C 
ATOM     18  N   LEU A   2      24.079  53.095 101.889  0.00  0.00    -0.297 N 
ATOM     19  H   LEU A   2      24.752  53.648 102.457  0.00  0.00    +0.150 HD
ATOM     20  O   ASN A   1      21.936  52.532 101.502  0.00  0.00    -0.274 OA
BRANCH  17  21
ATOM     21  CA  ASN A   1      22.336  54.207 103.202  0.00  0.00    +0.154 C 
BRANCH  21  22
ATOM     22  N   ASN A   1      21.767  55.389 102.558  0.00  0.00    -0.238 NA
ATOM     23  H   ASN A   1      20.738  55.417 102.407  0.00  0.00    +0.142 HD
ENDBRANCH  21  22
BRANCH  21  24
ATOM     24  CB  ASN A   1      21.282  53.533 104.099  0.00  0.00    +0.111 C 
BRANCH  24  25
ATOM     25  CG  ASN A   1      20.791  54.423 105.242  0.00  0.00    +0.221 C 
ATOM     26  ND2 ASN A   1      21.679  55.227 105.823  0.00  0.00    -0.329 N 
ATOM     27 HD21 ASN A   1      21.391  55.831 106.619  0.00  0.00    +0.145 HD
ATOM     28 HD22 ASN A   1      22.661  55.251 105.481  0.00  0.00    +0.145 HD
ATOM     29  OD1 ASN A   1      19.616  54.356 105.608  0.00  0.00    -0.275 OA
ENDBRANCH  24  25
ENDBRANCH  21  24
ENDBRANCH  17  21
ENDBRANCH  16  18
BRANCH  16  30
ATOM     30  CB  LEU A   2      26.041  52.546 100.493  0.00  0.00    +0.029 C 
BRANCH  30  31
ATOM     31  CG  LEU A   2      26.272  53.983 100.000  0.00  0.00    +0.002 C 
ATOM     32  CD2 LEU A   2      27.703  54.082  99.430  0.00  0.00    +0.000 C 
ATOM     33  CD1 LEU A   2      25.242  54.346  98.945  0.00  0.00    +0.000 C 
ENDBRANCH  30  31
ENDBRANCH  16  30
ENDBRANCH  12  16
ENDBRANCH  11  14
BRANCH  11  34
ATOM     34  CB  MET A   3      22.639  47.833 100.185  0.00  0.00    +0.041 C 
BRANCH  34  35
ATOM     35  CG  MET A   3      21.400  48.533 100.702  0.00  0.00    +0.060 C 
BRANCH  35  36
ATOM     36  SD  MET A   3      19.905  47.854 100.023  0.00  0.00    -0.139 S 
ATOM     37  CE  MET A   3      19.749  48.819  98.537  0.00  0.00    +0.069 C 
ENDBRANCH  35  36
ENDBRANCH  34  35
ENDBRANCH  11  34
ENDBRANCH   7  11
ENDBRANCH   6   8
BRANCH   6  38
ATOM     38  CB  THR A   4      28.696  48.662 101.075  0.00  0.00    +0.137 C 
ATOM     39  CG2 THR A   4      28.940  49.700  99.978  0.00  0.00    +0.034 C 
BRANCH  38  40
ATOM     40  OG1 THR A   4      28.262  49.361 102.252  0.00  0.00    -0.382 OA
ATOM     41  HG1 THR A   4      28.088  48.709 102.976  0.00  0.00    +0.210 HD
ENDBRANCH  38  40
ENDBRANCH   6  38
ENDBRANCH   2   6
ENDBRANCH   1   4
BRANCH   1  42
ATOM     42  C   TYR A   5      26.222  43.209 100.043  0.00  0.00    +0.241 C 
ATOM     43  N   ASP A   6      26.136  41.887 100.114  0.00  0.00    -0.297 N 
ATOM     44  H   ASP A   6      26.497  41.389 100.952  0.00  0.00    +0.150 HD
ATOM     45  O   TYR A   5      25.772  43.843  99.090  0.00  0.00    -0.273 OA
BRANCH  43  46
ATOM     46  CA  ASP A   6      25.529  41.120  99.006  0.00  0.00    +0.160 C 
BRANCH  46  47
ATOM     47  C   ASP A   6      26.308  41.365  97.700  0.00  0.00    +0.241 C 
ATOM     48  N   LEU A   7      27.596  41.712  97.813  0.00  0.00    -0.297 N 
ATOM     49  H   LEU A   7      28.000  41.835  98.764  0.00  0.00    +0.150 HD
ATOM     50  O   ASP A   6      25.751  41.247  96.595  0.00  0.00    -0.273 OA
BRANCH  48  51
ATOM     51  CA  LEU A   7      28.455  41.924  96.652  0.00  0.00    +0.149 C 
BRANCH  51  52
ATOM     52  C   LEU A   7      29.005  40.576  96.146  0.00  0.00    +0.241 C 
ATOM     53  N   ALA A   8      28.668  39.508  96.864  0.00  0.00    -0.297 N 
ATOM     54  H   ALA A   8      28.107  39.647  97.729  0.00  0.00    +0.150 HD
ATOM     55  O   LEU A   7      29.737  40.515  95.158  0.00  0.00    -0.273 OA
BRANCH  53  56
ATOM     56  CA  ALA A   8      29.051  38.150  96.492  0.00  0.00    +0.149 C 
ATOM     57  CB  ALA A   8      30.353  37.724  97.206  0.00  0.00    +0.031 C 
BRANCH  56  58
ATOM     58  C   ALA A   8      27.876  37.292  96.943  0.00  0.00    +0.241 C 
ATOM     59  O   ALA A   8      27.143  37.655  97.880  0.00  0.00    -0.273 OA
ATOM     60  N   GLY A   9      27.690  36.153  96.276  0.00  0.00    -0.296 N 
ATOM     61  H   GLY A   9      28.334  35.882  95.506  0.00  0.00    +0.150 HD
BRANCH  60  62
ATOM     62  CA  GLY A   9      26.578  35.298  96.638  0.00  0.00    +0.163 C 
BRANCH  62  63
ATOM     63  C   GLY A   9      26.501  34.115  95.697  0.00  0.00    +0.229 C 
ATOM     64  O   GLY A   9      27.076  34.164  94.618  0.00  0.00    -0.286 OA
ENDBRANCH  62  63
ENDBRANCH  60  62
ENDBRANCH  56  58
ENDBRANCH  53  56
ENDBRANCH  51  52
BRANCH  51  65
ATOM     65  CB  LEU A   7      29.619  42.853  97.027  0.00  0.00    +0.029 C 
BRANCH  65  66
ATOM     66  CG  LEU A   7      29.166  44.234  97.549  0.00  0.00    +0.002 C 
ATOM     67  CD2 LEU A   7      30.404  45.120  97.850  0.00  0.00    +0.000 C 
ATOM     68  CD1 LEU A   7      28.318  44.908  96.493  0.00  0.00    +0.000 C 
ENDBRANCH  65  66
ENDBRANCH  51  65
ENDBRANCH  48  51
ENDBRANCH  46  47
BRANCH  46  69
ATOM     69  CB  ASP A   6      24.048  41.496  98.776  0.00  0.00    +0.143 C 
BRANCH  69  70
ATOM     70  CG  ASP A   6      23.091  40.914  99.814  0.00  0.00    +0.367 C 
ATOM     71  OD2 ASP A   6      23.485  40.210 100.763  0.00  0.00    -0.246 OA
ATOM     72  OD1 ASP A   6      21.884  41.196  99.675  0.00  0.00    -0.246 OA
ENDBRANCH  69  70
ENDBRANCH  46  69
ENDBRANCH  43  46
ENDBRANCH   1  42
BRANCH   1  73
ATOM     73  CB  TYR A   5      26.340  43.698 102.572  0.00  0.00    +0.055 C 
BRANCH  73  74
ATOM     74  CG  TYR A   5      25.090  44.486 102.906  0.00  0.00    -0.020 A 
ATOM     75  CD2 TYR A   5      25.142  45.562 103.806  0.00  0.00    -0.001 A 
ATOM     76  CE2 TYR A   5      23.990  46.314 104.116  0.00  0.00    +0.036 A 
ATOM     77  CZ  TYR A   5      22.774  45.981 103.524  0.00  0.00    +0.134 A 
ATOM     78  CE1 TYR A   5      22.701  44.923 102.636  0.00  0.00    +0.036 A 
ATOM     79  CD1 TYR A   5      23.865  44.168 102.326  0.00  0.00    -0.001 A 
BRANCH  77  80
ATOM     80  OH  TYR A   5      21.631  46.704 103.835  0.00  0.00    -0.506 OA
ATOM     81  HH  TYR A   5      20.862  46.337 103.330  0.00  0.00    +0.292 HD
ENDBRANCH  77  80
ENDBRANCH  73  74
ENDBRANCH   1  73
TORSDOF 34
REMARK  Name = ../refined-set-2016/1ur9/1ur9_pocket.pdb
REMARK  225 active torsions:
REMARK  status: ('A' for Active; 'I' for Inactive)
REMARK    1  A    between atoms: _1  and  _3
REMARK    2  A    between atoms: _3  and  _4
REMARK    3  A    between atoms: _3  and  _6
REMARK    4  A    between atoms: _6  and  _7
REMARK    5  A    between atoms: _12  and  _13
REMARK    6  A    between atoms: _15  and  _17
REMARK    7  A    between atoms: _17  and  _18
REMARK    8  A    between atoms: _17  and  _20
REMARK    9  A    between atoms: _20  and  _21
REMARK   10  A    between atoms: _28  and  _29
REMARK   11  A    between atoms: _34  and  _36
REMARK   12  A    between atoms: _36  and  _37
REMARK   13  A    between atoms: _36  and  _39
REMARK   14  A    between atoms: _39  and  _40
REMARK   15  A    between atoms: _45  and  _47
REMARK   16  A    between atoms: _47  and  _48
REMARK   17  A    between atoms: _47  and  _50
REMARK   18  A    between atoms: _50  and  _51
REMARK   19  A    between atoms: _53  and  _55
REMARK   20  A    between atoms: _55  and  _56
REMARK   21  A    between atoms: _55  and  _58
REMARK   22  A    between atoms: _58  and  _59
REMARK   23  A    between atoms: _65  and  _67
REMARK   24  A    between atoms: _67  and  _68
REMARK   25  A    between atoms: _67  and  _70
REMARK   26  A    between atoms: _70  and  _71
REMARK   27  A    between atoms: _73  and  _75
REMARK   28  A    between atoms: _75  and  _76
REMARK   29  A    between atoms: _78  and  _80
REMARK   30  A    between atoms: _80  and  _81
REMARK   31  A    between atoms: _83  and  _85
REMARK   32  A    between atoms: _85  and  _86
REMARK   33  A    between atoms: _85  and  _88
REMARK   34  A    between atoms: _88  and  _89
REMARK   35  A    between atoms: _99  and  _101
REMARK   36  A    between atoms: _101  and  _102
REMARK   37  A    between atoms: _101  and  _104
REMARK   38  A    between atoms: _104  and  _105
REMARK   39  A    between atoms: _110  and  _111
REMARK   40  A    between atoms: _113  and  _115
REMARK   41  A    between atoms: _115  and  _116
REMARK   42  A    between atoms: _115  and  _118
REMARK   43  A    between atoms: _118  and  _119
REMARK   44  A    between atoms: _124  and  _125
REMARK   45  A    between atoms: _127  and  _129
REMARK   46  A    between atoms: _129  and  _130
REMARK   47  A    between atoms: _129  and  _132
REMARK   48  A    between atoms: _132  and  _133
REMARK   49  A    between atoms: _135  and  _137
REMARK   50  A    between atoms: _137  and  _138
REMARK   51  A    between atoms: _137  and  _140
REMARK   52  A    between atoms: _140  and  _141
REMARK   53  A    between atoms: _146  and  _148
REMARK   54  A    between atoms: _148  and  _149
REMARK   55  A    between atoms: _148  and  _151
REMARK   56  A    between atoms: _151  and  _152
REMARK   57  A    between atoms: _155  and  _157
REMARK   58  A    between atoms: _157  and  _158
REMARK   59  A    between atoms: _157  and  _160
REMARK   60  A    between atoms: _160  and  _161
REMARK   61  A    between atoms: _164  and  _166
REMARK   62  A    between atoms: _166  and  _167
REMARK   63  A    between atoms: _166  and  _169
REMARK   64  A    between atoms: _169  and  _170
REMARK   65  A    between atoms: _175  and  _177
REMARK   66  A    between atoms: _177  and  _178
REMARK   67  A    between atoms: _177  and  _180
REMARK   68  A    between atoms: _180  and  _181
REMARK   69  A    between atoms: _191  and  _193
REMARK   70  A    between atoms: _193  and  _194
REMARK   71  A    between atoms: _193  and  _196
REMARK   72  A    between atoms: _196  and  _197
REMARK   73  A    between atoms: _197  and  _198
REMARK   74  A    between atoms: _201  and  _203
REMARK   75  A    between atoms: _203  and  _204
REMARK   76  A    between atoms: _203  and  _206
REMARK   77  A    between atoms: _206  and  _207
REMARK   78  A    between atoms: _212  and  _213
REMARK   79  A    between atoms: _215  and  _217
REMARK   80  A    between atoms: _217  and  _218
REMARK   81  A    between atoms: _217  and  _220
REMARK   82  A    between atoms: _220  and  _221
REMARK   83  A    between atoms: _224  and  _226
REMARK   84  A    between atoms: _226  and  _227
REMARK   85  A    between atoms: _230  and  _232
REMARK   86  A    between atoms: _232  and  _233
REMARK   87  A    between atoms: _235  and  _237
REMARK   88  A    between atoms: _237  and  _238
REMARK   89  A    between atoms: _241  and  _243
REMARK   90  A    between atoms: _243  and  _244
REMARK   91  A    between atoms: _246  and  _248
REMARK   92  A    between atoms: _248  and  _249
REMARK   93  A    between atoms: _251  and  _253
REMARK   94  A    between atoms: _253  and  _254
REMARK   95  A    between atoms: _253  and  _256
REMARK   96  A    between atoms: _256  and  _257
REMARK   97  A    between atoms: _263  and  _265
REMARK   98  A    between atoms: _265  and  _266
REMARK   99  A    between atoms: _265  and  _268
REMARK  100  A    between atoms: _268  and  _269
REMARK  101  A    between atoms: _275  and  _277
REMARK  102  A    between atoms: _277  and  _278
REMARK  103  A    between atoms: _277  and  _280
REMARK  104  A    between atoms: _280  and  _281
REMARK  105  A    between atoms: _281  and  _282
REMARK  106  A    between atoms: _282  and  _283
REMARK  107  A    between atoms: _292  and  _294
REMARK  108  A    between atoms: _294  and  _295
REMARK  109  A    between atoms: _294  and  _297
REMARK  110  A    between atoms: _297  and  _298
REMARK  111  A    between atoms: _303  and  _305
REMARK  112  A    between atoms: _305  and  _306
REMARK  113  A    between atoms: _305  and  _308
REMARK  114  A    between atoms: _308  and  _309
REMARK  115  A    between atoms: _312  and  _314
REMARK  116  A    between atoms: _314  and  _315
REMARK  117  A    between atoms: _314  and  _317
REMARK  118  A    between atoms: _317  and  _318
REMARK  119  A    between atoms: _318  and  _319
REMARK  120  A    between atoms: _321  and  _323
REMARK  121  A    between atoms: _323  and  _324
REMARK  122  A    between atoms: _323  and  _326
REMARK  123  A    between atoms: _326  and  _327
REMARK  124  A    between atoms: _330  and  _332
REMARK  125  A    between atoms: _332  and  _333
REMARK  126  A    between atoms: _332  and  _335
REMARK  127  A    between atoms: _335  and  _336
REMARK  128  A    between atoms: _341  and  _342
REMARK  129  A    between atoms: _344  and  _346
REMARK  130  A    between atoms: _346  and  _347
REMARK  131  A    between atoms: _346  and  _349
REMARK  132  A    between atoms: _349  and  _350
REMARK  133  A    between atoms: _353  and  _355
REMARK  134  A    between atoms: _355  and  _356
REMARK  135  A    between atoms: _355  and  _358
REMARK  136  A    between atoms: _358  and  _359
REMARK  137  A    between atoms: _362  and  _364
REMARK  138  A    between atoms: _364  and  _365
REMARK  139  A    between atoms: _368  and  _370
REMARK  140  A    between atoms: _370  and  _371
REMARK  141  A    between atoms: _373  and  _375
REMARK  142  A    between atoms: _375  and  _376
REMARK  143  A    between atoms: _375  and  _378
REMARK  144  A    between atoms: _378  and  _379
REMARK  145  A    between atoms: _389  and  _391
REMARK  146  A    between atoms: _391  and  _392
REMARK  147  A    between atoms: _391  and  _394
REMARK  148  A    between atoms: _394  and  _395
REMARK  149  A    between atoms: _395  and  _396
REMARK  150  A    between atoms: _399  and  _401
REMARK  151  A    between atoms: _401  and  _402
REMARK  152  A    between atoms: _401  and  _404
REMARK  153  A    between atoms: _404  and  _405
REMARK  154  A    between atoms: _405  and  _406
REMARK  155  A    between atoms: _411  and  _413
REMARK  156  A    between atoms: _413  and  _414
REMARK  157  A    between atoms: _413  and  _416
REMARK  158  A    between atoms: _420  and  _421
REMARK  159  A    between atoms: _426  and  _428
REMARK  160  A    between atoms: _428  and  _429
REMARK  161  A    between atoms: _428  and  _431
REMARK  162  A    between atoms: _431  and  _432
REMARK  163  A    between atoms: _438  and  _440
REMARK  164  A    between atoms: _440  and  _441
REMARK  165  A    between atoms: _440  and  _443
REMARK  166  A    between atoms: _443  and  _444
REMARK  167  A    between atoms: _449  and  _450
REMARK  168  A    between atoms: _452  and  _454
REMARK  169  A    between atoms: _454  and  _455
REMARK  170  A    between atoms: _457  and  _459
REMARK  171  A    between atoms: _459  and  _460
REMARK  172  A    between atoms: _459  and  _462
REMARK  173  A    between atoms: _462  and  _463
REMARK  174  A    between atoms: _463  and  _464
REMARK  175  A    between atoms: _464  and  _465
REMARK  176  A    between atoms: _474  and  _476
REMARK  177  A    between atoms: _476  and  _477
REMARK  178  A    between atoms: _476  and  _479
REMARK  179  A    between atoms: _479  and  _480
REMARK  180  A    between atoms: _483  and  _485
REMARK  181  A    between atoms: _485  and  _486
REMARK  182  A    between atoms: _485  and  _488
REMARK  183  A    between atoms: _488  and  _489
REMARK  184  A    between atoms: _492  and  _494
REMARK  185  A    between atoms: _494  and  _495
REMARK  186  A    between atoms: _494  and  _497
REMARK  187  A    between atoms: _497  and  _498
REMARK  188  A    between atoms: _501  and  _503
REMARK  189  A    between atoms: _503  and  _504
REMARK  190  A    between atoms: _503  and  _506
REMARK  191  A    between atoms: _506  and  _507
REMARK  192  A    between atoms: _507  and  _508
REMARK  193  A    between atoms: _508  and  _509
REMARK  194  A    between atoms: _518  and  _520
REMARK  195  A    between atoms: _520  and  _521
REMARK  196  A    between atoms: _520  and  _523
REMARK  197  A    between atoms: _523  and  _524
REMARK  198  A    between atoms: _527  and  _529
REMARK  199  A    between atoms: _529  and  _530
REMARK  200  A    between atoms: _533  and  _535
REMARK  201  A    between atoms: _535  and  _536
REMARK  202  A    between atoms: _535  and  _538
REMARK  203  A    between atoms: _538  and  _539
REMARK  204  A    between atoms: _541  and  _543
REMARK  205  A    between atoms: _543  and  _544
REMARK  206  A    between atoms: _543  and  _546
REMARK  207  A    between atoms: _546  and  _547
REMARK  208  A    between atoms: _547  and  _548
REMARK  209  A    between atoms: _550  and  _552
REMARK  210  A    between atoms: _552  and  _553
REMARK  211  A    between atoms: _552  and  _555
REMARK  212  A    between atoms: _555  and  _556
REMARK  213  A    between atoms: _562  and  _564
REMARK  214  A    between atoms: _564  and  _565
REMARK  215  A    between atoms: _564  and  _567
REMARK  216  A    between atoms: _567  and  _568
REMARK  217  A    between atoms: _578  and  _580
REMARK  218  A    between atoms: _580  and  _581
REMARK  219  A    between atoms: _580  and  _583
REMARK  220  A    between atoms: _583  and  _584
REMARK  221  A    between atoms: _589  and  _591
REMARK  222  A    between atoms: _591  and  _592
REMARK  223  A    between atoms: _591  and  _594
REMARK  224  A    between atoms: _594  and  _595
REMARK  225  A    between atoms: _595  and  _596
REMARK                            x       y       z     vdW  Elec       q    Type
REMARK                         _______ _______ _______ _____ _____    ______ ____
ROOT
ATOM      1  CA  TRP A   1      24.148  33.554  92.250  0.00  0.00    +0.149 C 
ENDROOT
BRANCH   1   2
ATOM      2  C   TRP A   1      25.278  33.975  91.326  0.00  0.00    +0.239 C 
ATOM      3  N   GLU A   2      26.492  34.079  91.858  0.00  0.00    -0.298 N 
ATOM      4  H   GLU A   2      26.616  33.905  92.876  0.00  0.00    +0.150 HD
ATOM      5  O   TRP A   1      25.055  34.219  90.148  0.00  0.00    -0.274 OA
BRANCH   3   6
ATOM      6  CA  GLU A   2      27.656  34.432  91.048  0.00  0.00    +0.137 C 
BRANCH   6   7
ATOM      7  C   GLU A   2      28.493  33.157  90.852  0.00  0.00    +0.227 C 
ATOM      8  O   GLU A   2      28.452  32.262  91.679  0.00  0.00    -0.286 OA
ENDBRANCH   6   7
BRANCH   6   9
ATOM      9  CB  GLU A   2      28.480  35.533  91.724  0.00  0.00    +0.039 C 
BRANCH   9  10
ATOM     10  CG  GLU A   2      28.051  36.986  91.385  0.00  0.00    +0.116 C 
BRANCH  10  11
ATOM     11  CD  GLU A   2      28.183  37.318  89.886  0.00  0.00    +0.365 C 
ATOM     12  OE2 GLU A   2      27.446  38.201  89.374  0.00  0.00    -0.246 OA
ATOM     13  OE1 GLU A   2      29.029  36.716  89.183  0.00  0.00    -0.246 OA
ENDBRANCH  10  11
ENDBRANCH   9  10
ENDBRANCH   6   9
ENDBRANCH   3   6
ENDBRANCH   1   2
BRANCH   1  14
ATOM     14  N   TRP A   1      24.607  33.221  93.588  0.00  0.00    -0.238 NA
ATOM     15  H   TRP A   1      24.514  33.925  94.348  0.00  0.00    +0.142 HD
ENDBRANCH   1  14
BRANCH   1  16
ATOM     16  CB  TRP A   1      23.087  34.653  92.331  0.00  0.00    +0.054 C 
BRANCH  16  17
ATOM     17  CG  TRP A   1      23.578  35.892  93.019  0.00  0.00    -0.002 A 
ATOM     18  CD2 TRP A   1      23.446  36.204  94.407  0.00  0.00    +0.013 A 
ATOM     19  CE3 TRP A   1      22.872  35.546  95.500  0.00  0.00    +0.001 A 
ATOM     20  CZ3 TRP A   1      22.924  36.163  96.758  0.00  0.00    +0.000 A 
ATOM     21  CH2 TRP A   1      23.538  37.419  96.922  0.00  0.00    +0.001 A 
ATOM     22  CZ2 TRP A   1      24.106  38.081  95.867  0.00  0.00    +0.017 A 
ATOM     23  CE2 TRP A   1      24.057  37.469  94.613  0.00  0.00    +0.056 A 
ATOM     24  NE1 TRP A   1      24.536  37.896  93.404  0.00  0.00    -0.352 N 
ATOM     25  HE1 TRP A   1      25.036  38.792  93.234  0.00  0.00    +0.166 HD
ATOM     26  CD1 TRP A   1      24.248  36.945  92.447  0.00  0.00    +0.068 A 
ENDBRANCH  16  17
ENDBRANCH   1  16
TORSDOF 9
REMARK  Name = ../refined-set-2016/1ur9/1ur9_pocket.pdb
REMARK  225 active torsions:
REMARK  status: ('A' for Active; 'I' for Inactive)
REMARK    1  A    between atoms: _1  and  _3
REMARK    2  A    between atoms: _3  and  _4
REMARK    3  A    between atoms: _3  and  _6
REMARK    4  A    between atoms: _6  and  _7
REMARK    5  A    between atoms: _12  and  _13
REMARK    6  A    between atoms: _15  and  _17
REMARK    7  A    between atoms: _17  and  _18
REMARK    8  A    between atoms: _17  and  _20
REMARK    9  A    between atoms: _20  and  _21
REMARK   10  A    between atoms: _28  and  _29
REMARK   11  A    between atoms: _34  and  _36
REMARK   12  A    between atoms: _36  and  _37
REMARK   13  A    between atoms: _36  and  _39
REMARK   14  A    between atoms: _39  and  _40
REMARK   15  A    between atoms: _45  and  _47
REMARK   16  A    between atoms: _47  and  _48
REMARK   17  A    between atoms: _47  and  _50
REMARK   18  A    between atoms: _50  and  _51
REMARK   19  A    between atoms: _53  and  _55
REMARK   20  A    between atoms: _55  and  _56
REMARK   21  A    between atoms: _55  and  _58
REMARK   22  A    between atoms: _58  and  _59
REMARK   23  A    between atoms: _65  and  _67
REMARK   24  A    between atoms: _67  and  _68
REMARK   25  A    between atoms: _67  and  _70
REMARK   26  A    between atoms: _70  and  _71
REMARK   27  A    between atoms: _73  and  _75
REMARK   28  A    between atoms: _75  and  _76
REMARK   29  A    between atoms: _78  and  _80
REMARK   30  A    between atoms: _80  and  _81
REMARK   31  A    between atoms: _83  and  _85
REMARK   32  A    between atoms: _85  and  _86
REMARK   33  A    between atoms: _85  and  _88
REMARK   34  A    between atoms: _88  and  _89
REMARK   35  A    between atoms: _99  and  _101
REMARK   36  A    between atoms: _101  and  _102
REMARK   37  A    between atoms: _101  and  _104
REMARK   38  A    between atoms: _104  and  _105
REMARK   39  A    between atoms: _110  and  _111
REMARK   40  A    between atoms: _113  and  _115
REMARK   41  A    between atoms: _115  and  _116
REMARK   42  A    between atoms: _115  and  _118
REMARK   43  A    between atoms: _118  and  _119
REMARK   44  A    between atoms: _124  and  _125
REMARK   45  A    between atoms: _127  and  _129
REMARK   46  A    between atoms: _129  and  _130
REMARK   47  A    between atoms: _129  and  _132
REMARK   48  A    between atoms: _132  and  _133
REMARK   49  A    between atoms: _135  and  _137
REMARK   50  A    between atoms: _137  and  _138
REMARK   51  A    between atoms: _137  and  _140
REMARK   52  A    between atoms: _140  and  _141
REMARK   53  A    between atoms: _146  and  _148
REMARK   54  A    between atoms: _148  and  _149
REMARK   55  A    between atoms: _148  and  _151
REMARK   56  A    between atoms: _151  and  _152
REMARK   57  A    between atoms: _155  and  _157
REMARK   58  A    between atoms: _157  and  _158
REMARK   59  A    between atoms: _157  and  _160
REMARK   60  A    between atoms: _160  and  _161
REMARK   61  A    between atoms: _164  and  _166
REMARK   62  A    between atoms: _166  and  _167
REMARK   63  A    between atoms: _166  and  _169
REMARK   64  A    between atoms: _169  and  _170
REMARK   65  A    between atoms: _175  and  _177
REMARK   66  A    between atoms: _177  and  _178
REMARK   67  A    between atoms: _177  and  _180
REMARK   68  A    between atoms: _180  and  _181
REMARK   69  A    between atoms: _191  and  _193
REMARK   70  A    between atoms: _193  and  _194
REMARK   71  A    between atoms: _193  and  _196
REMARK   72  A    between atoms: _196  and  _197
REMARK   73  A    between atoms: _197  and  _198
REMARK   74  A    between atoms: _201  and  _203
REMARK   75  A    between atoms: _203  and  _204
REMARK   76  A    between atoms: _203  and  _206
REMARK   77  A    between atoms: _206  and  _207
REMARK   78  A    between atoms: _212  and  _213
REMARK   79  A    between atoms: _215  and  _217
REMARK   80  A    between atoms: _217  and  _218
REMARK   81  A    between atoms: _217  and  _220
REMARK   82  A    between atoms: _220  and  _221
REMARK   83  A    between atoms: _224  and  _226
REMARK   84  A    between atoms: _226  and  _227
REMARK   85  A    between atoms: _230  and  _232
REMARK   86  A    between atoms: _232  and  _233
REMARK   87  A    between atoms: _235  and  _237
REMARK   88  A    between atoms: _237  and  _238
REMARK   89  A    between atoms: _241  and  _243
REMARK   90  A    between atoms: _243  and  _244
REMARK   91  A    between atoms: _246  and  _248
REMARK   92  A    between atoms: _248  and  _249
REMARK   93  A    between atoms: _251  and  _253
REMARK   94  A    between atoms: _253  and  _254
REMARK   95  A    between atoms: _253  and  _256
REMARK   96  A    between atoms: _256  and  _257
REMARK   97  A    between atoms: _263  and  _265
REMARK   98  A    between atoms: _265  and  _266
REMARK   99  A    between atoms: _265  and  _268
REMARK  100  A    between atoms: _268  and  _269
REMARK  101  A    between atoms: _275  and  _277
REMARK  102  A    between atoms: _277  and  _278
REMARK  103  A    between atoms: _277  and  _280
REMARK  104  A    between atoms: _280  and  _281
REMARK  105  A    between atoms: _281  and  _282
REMARK  106  A    between atoms: _282  and  _283
REMARK  107  A    between atoms: _292  and  _294
REMARK  108  A    between atoms: _294  and  _295
REMARK  109  A    between atoms: _294  and  _297
REMARK  110  A    between atoms: _297  and  _298
REMARK  111  A    between atoms: _303  and  _305
REMARK  112  A    between atoms: _305  and  _306
REMARK  113  A    between atoms: _305  and  _308
REMARK  114  A    between atoms: _308  and  _309
REMARK  115  A    between atoms: _312  and  _314
REMARK  116  A    between atoms: _314  and  _315
REMARK  117  A    between atoms: _314  and  _317
REMARK  118  A    between atoms: _317  and  _318
REMARK  119  A    between atoms: _318  and  _319
REMARK  120  A    between atoms: _321  and  _323
REMARK  121  A    between atoms: _323  and  _324
REMARK  122  A    between atoms: _323  and  _326
REMARK  123  A    between atoms: _326  and  _327
REMARK  124  A    between atoms: _330  and  _332
REMARK  125  A    between atoms: _332  and  _333
REMARK  126  A    between atoms: _332  and  _335
REMARK  127  A    between atoms: _335  and  _336
REMARK  128  A    between atoms: _341  and  _342
REMARK  129  A    between atoms: _344  and  _346
REMARK  130  A    between atoms: _346  and  _347
REMARK  131  A    between atoms: _346  and  _349
REMARK  132  A    between atoms: _349  and  _350
REMARK  133  A    between atoms: _353  and  _355
REMARK  134  A    between atoms: _355  and  _356
REMARK  135  A    between atoms: _355  and  _358
REMARK  136  A    between atoms: _358  and  _359
REMARK  137  A    between atoms: _362  and  _364
REMARK  138  A    between atoms: _364  and  _365
REMARK  139  A    between atoms: _368  and  _370
REMARK  140  A    between atoms: _370  and  _371
REMARK  141  A    between atoms: _373  and  _375
REMARK  142  A    between atoms: _375  and  _376
REMARK  143  A    between atoms: _375  and  _378
REMARK  144  A    between atoms: _378  and  _379
REMARK  145  A    between atoms: _389  and  _391
REMARK  146  A    between atoms: _391  and  _392
REMARK  147  A    between atoms: _391  and  _394
REMARK  148  A    between atoms: _394  and  _395
REMARK  149  A    between atoms: _395  and  _396
REMARK  150  A    between atoms: _399  and  _401
REMARK  151  A    between atoms: _401  and  _402
REMARK  152  A    between atoms: _401  and  _404
REMARK  153  A    between atoms: _404  and  _405
REMARK  154  A    between atoms: _405  and  _406
REMARK  155  A    between atoms: _411  and  _413
REMARK  156  A    between atoms: _413  and  _414
REMARK  157  A    between atoms: _413  and  _416
REMARK  158  A    between atoms: _420  and  _421
REMARK  159  A    between atoms: _426  and  _428
REMARK  160  A    between atoms: _428  and  _429
REMARK  161  A    between atoms: _428  and  _431
REMARK  162  A    between atoms: _431  and  _432
REMARK  163  A    between atoms: _438  and  _440
REMARK  164  A    between atoms: _440  and  _441
REMARK  165  A    between atoms: _440  and  _443
REMARK  166  A    between atoms: _443  and  _444
REMARK  167  A    between atoms: _449  and  _450
REMARK  168  A    between atoms: _452  and  _454
REMARK  169  A    between atoms: _454  and  _455
REMARK  170  A    between atoms: _457  and  _459
REMARK  171  A    between atoms: _459  and  _460
REMARK  172  A    between atoms: _459  and  _462
REMARK  173  A    between atoms: _462  and  _463
REMARK  174  A    between atoms: _463  and  _464
REMARK  175  A    between atoms: _464  and  _465
REMARK  176  A    between atoms: _474  and  _476
REMARK  177  A    between atoms: _476  and  _477
REMARK  178  A    between atoms: _476  and  _479
REMARK  179  A    between atoms: _479  and  _480
REMARK  180  A    between atoms: _483  and  _485
REMARK  181  A    between atoms: _485  and  _486
REMARK  182  A    between atoms: _485  and  _488
REMARK  183  A    between atoms: _488  and  _489
REMARK  184  A    between atoms: _492  and  _494
REMARK  185  A    between atoms: _494  and  _495
REMARK  186  A    between atoms: _494  and  _497
REMARK  187  A    between atoms: _497  and  _498
REMARK  188  A    between atoms: _501  and  _503
REMARK  189  A    between atoms: _503  and  _504
REMARK  190  A    between atoms: _503  and  _506
REMARK  191  A    between atoms: _506  and  _507
REMARK  192  A    between atoms: _507  and  _508
REMARK  193  A    between atoms: _508  and  _509
REMARK  194  A    between atoms: _518  and  _520
REMARK  195  A    between atoms: _520  and  _521
REMARK  196  A    between atoms: _520  and  _523
REMARK  197  A    between atoms: _523  and  _524
REMARK  198  A    between atoms: _527  and  _529
REMARK  199  A    between atoms: _529  and  _530
REMARK  200  A    between atoms: _533  and  _535
REMARK  201  A    between atoms: _535  and  _536
REMARK  202  A    between atoms: _535  and  _538
REMARK  203  A    between atoms: _538  and  _539
REMARK  204  A    between atoms: _541  and  _543
REMARK  205  A    between atoms: _543  and  _544
REMARK  206  A    between atoms: _543  and  _546
REMARK  207  A    between atoms: _546  and  _547
REMARK  208  A    between atoms: _547  and  _548
REMARK  209  A    between atoms: _550  and  _552
REMARK  210  A    between atoms: _552  and  _553
REMARK  211  A    between atoms: _552  and  _555
REMARK  212  A    between atoms: _555  and  _556
REMARK  213  A    between atoms: _562  and  _564
REMARK  214  A    between atoms: _564  and  _565
REMARK  215  A    between atoms: _564  and  _567
REMARK  216  A    between atoms: _567  and  _568
REMARK  217  A    between atoms: _578  and  _580
REMARK  218  A    between atoms: _580  and  _581
REMARK  219  A    between atoms: _580  and  _583
REMARK  220  A    between atoms: _583  and  _584
REMARK  221  A    between atoms: _589  and  _591
REMARK  222  A    between atoms: _591  and  _592
REMARK  223  A    between atoms: _591  and  _594
REMARK  224  A    between atoms: _594  and  _595
REMARK  225  A    between atoms: _595  and  _596
REMARK                            x       y       z     vdW  Elec       q    Type
REMARK                         _______ _______ _______ _____ _____    ______ ____
ROOT
ATOM      1  CB  GLN A   1      28.988  39.222 100.656  0.00  0.00    +0.035 C 
ENDROOT
BRANCH   1   2
ATOM      2  CA  GLN A   1      30.251  39.840 100.026  0.00  0.00    +0.134 C 
BRANCH   2   3
ATOM      3  N   GLN A   1      31.446  39.060 100.396  0.00  0.00    -0.239 NA
ATOM      4  H   GLN A   1      31.466  38.545 101.299  0.00  0.00    +0.142 HD
ENDBRANCH   2   3
BRANCH   2   5
ATOM      5  C   GLN A   1      30.345  41.296 100.431  0.00  0.00    +0.224 C 
ATOM      6  O   GLN A   1      29.524  42.108 100.019  0.00  0.00    -0.287 OA
ENDBRANCH   2   5
ENDBRANCH   1   2
BRANCH   1   7
ATOM      7  CG  GLN A   1      28.920  39.373 102.173  0.00  0.00    +0.087 C 
BRANCH   7   8
ATOM      8  CD  GLN A   1      27.500  39.264 102.784  0.00  0.00    +0.219 C 
ATOM      9  OE1 GLN A   1      27.362  38.879 103.946  0.00  0.00    -0.275 OA
ATOM     10  NE2 GLN A   1      26.469  39.617 102.026  0.00  0.00    -0.329 N 
ATOM     11 HE21 GLN A   1      25.503  39.574 102.409  0.00  0.00    +0.145 HD
ATOM     12 HE22 GLN A   1      26.627  39.937 101.049  0.00  0.00    +0.145 HD
ENDBRANCH   7   8
ENDBRANCH   1   7
TORSDOF 5
REMARK  Name = ../refined-set-2016/1ur9/1ur9_pocket.pdb
REMARK  225 active torsions:
REMARK  status: ('A' for Active; 'I' for Inactive)
REMARK    1  A    between atoms: _1  and  _3
REMARK    2  A    between atoms: _3  and  _4
REMARK    3  A    between atoms: _3  and  _6
REMARK    4  A    between atoms: _6  and  _7
REMARK    5  A    between atoms: _12  and  _13
REMARK    6  A    between atoms: _15  and  _17
REMARK    7  A    between atoms: _17  and  _18
REMARK    8  A    between atoms: _17  and  _20
REMARK    9  A    between atoms: _20  and  _21
REMARK   10  A    between atoms: _28  and  _29
REMARK   11  A    between atoms: _34  and  _36
REMARK   12  A    between atoms: _36  and  _37
REMARK   13  A    between atoms: _36  and  _39
REMARK   14  A    between atoms: _39  and  _40
REMARK   15  A    between atoms: _45  and  _47
REMARK   16  A    between atoms: _47  and  _48
REMARK   17  A    between atoms: _47  and  _50
REMARK   18  A    between atoms: _50  and  _51
REMARK   19  A    between atoms: _53  and  _55
REMARK   20  A    between atoms: _55  and  _56
REMARK   21  A    between atoms: _55  and  _58
REMARK   22  A    between atoms: _58  and  _59
REMARK   23  A    between atoms: _65  and  _67
REMARK   24  A    between atoms: _67  and  _68
REMARK   25  A    between atoms: _67  and  _70
REMARK   26  A    between atoms: _70  and  _71
REMARK   27  A    between atoms: _73  and  _75
REMARK   28  A    between atoms: _75  and  _76
REMARK   29  A    between atoms: _78  and  _80
REMARK   30  A    between atoms: _80  and  _81
REMARK   31  A    between atoms: _83  and  _85
REMARK   32  A    between atoms: _85  and  _86
REMARK   33  A    between atoms: _85  and  _88
REMARK   34  A    between atoms: _88  and  _89
REMARK   35  A    between atoms: _99  and  _101
REMARK   36  A    between atoms: _101  and  _102
REMARK   37  A    between atoms: _101  and  _104
REMARK   38  A    between atoms: _104  and  _105
REMARK   39  A    between atoms: _110  and  _111
REMARK   40  A    between atoms: _113  and  _115
REMARK   41  A    between atoms: _115  and  _116
REMARK   42  A    between atoms: _115  and  _118
REMARK   43  A    between atoms: _118  and  _119
REMARK   44  A    between atoms: _124  and  _125
REMARK   45  A    between atoms: _127  and  _129
REMARK   46  A    between atoms: _129  and  _130
REMARK   47  A    between atoms: _129  and  _132
REMARK   48  A    between atoms: _132  and  _133
REMARK   49  A    between atoms: _135  and  _137
REMARK   50  A    between atoms: _137  and  _138
REMARK   51  A    between atoms: _137  and  _140
REMARK   52  A    between atoms: _140  and  _141
REMARK   53  A    between atoms: _146  and  _148
REMARK   54  A    between atoms: _148  and  _149
REMARK   55  A    between atoms: _148  and  _151
REMARK   56  A    between atoms: _151  and  _152
REMARK   57  A    between atoms: _155  and  _157
REMARK   58  A    between atoms: _157  and  _158
REMARK   59  A    between atoms: _157  and  _160
REMARK   60  A    between atoms: _160  and  _161
REMARK   61  A    between atoms: _164  and  _166
REMARK   62  A    between atoms: _166  and  _167
REMARK   63  A    between atoms: _166  and  _169
REMARK   64  A    between atoms: _169  and  _170
REMARK   65  A    between atoms: _175  and  _177
REMARK   66  A    between atoms: _177  and  _178
REMARK   67  A    between atoms: _177  and  _180
REMARK   68  A    between atoms: _180  and  _181
REMARK   69  A    between atoms: _191  and  _193
REMARK   70  A    between atoms: _193  and  _194
REMARK   71  A    between atoms: _193  and  _196
REMARK   72  A    between atoms: _196  and  _197
REMARK   73  A    between atoms: _197  and  _198
REMARK   74  A    between atoms: _201  and  _203
REMARK   75  A    between atoms: _203  and  _204
REMARK   76  A    between atoms: _203  and  _206
REMARK   77  A    between atoms: _206  and  _207
REMARK   78  A    between atoms: _212  and  _213
REMARK   79  A    between atoms: _215  and  _217
REMARK   80  A    between atoms: _217  and  _218
REMARK   81  A    between atoms: _217  and  _220
REMARK   82  A    between atoms: _220  and  _221
REMARK   83  A    between atoms: _224  and  _226
REMARK   84  A    between atoms: _226  and  _227
REMARK   85  A    between atoms: _230  and  _232
REMARK   86  A    between atoms: _232  and  _233
REMARK   87  A    between atoms: _235  and  _237
REMARK   88  A    between atoms: _237  and  _238
REMARK   89  A    between atoms: _241  and  _243
REMARK   90  A    between atoms: _243  and  _244
REMARK   91  A    between atoms: _246  and  _248
REMARK   92  A    between atoms: _248  and  _249
REMARK   93  A    between atoms: _251  and  _253
REMARK   94  A    between atoms: _253  and  _254
REMARK   95  A    between atoms: _253  and  _256
REMARK   96  A    between atoms: _256  and  _257
REMARK   97  A    between atoms: _263  and  _265
REMARK   98  A    between atoms: _265  and  _266
REMARK   99  A    between atoms: _265  and  _268
REMARK  100  A    between atoms: _268  and  _269
REMARK  101  A    between atoms: _275  and  _277
REMARK  102  A    between atoms: _277  and  _278
REMARK  103  A    between atoms: _277  and  _280
REMARK  104  A    between atoms: _280  and  _281
REMARK  105  A    between atoms: _281  and  _282
REMARK  106  A    between atoms: _282  and  _283
REMARK  107  A    between atoms: _292  and  _294
REMARK  108  A    between atoms: _294  and  _295
REMARK  109  A    between atoms: _294  and  _297
REMARK  110  A    between atoms: _297  and  _298
REMARK  111  A    between atoms: _303  and  _305
REMARK  112  A    between atoms: _305  and  _306
REMARK  113  A    between atoms: _305  and  _308
REMARK  114  A    between atoms: _308  and  _309
REMARK  115  A    between atoms: _312  and  _314
REMARK  116  A    between atoms: _314  and  _315
REMARK  117  A    between atoms: _314  and  _317
REMARK  118  A    between atoms: _317  and  _318
REMARK  119  A    between atoms: _318  and  _319
REMARK  120  A    between atoms: _321  and  _323
REMARK  121  A    between atoms: _323  and  _324
REMARK  122  A    between atoms: _323  and  _326
REMARK  123  A    between atoms: _326  and  _327
REMARK  124  A    between atoms: _330  and  _332
REMARK  125  A    between atoms: _332  and  _333
REMARK  126  A    between atoms: _332  and  _335
REMARK  127  A    between atoms: _335  and  _336
REMARK  128  A    between atoms: _341  and  _342
REMARK  129  A    between atoms: _344  and  _346
REMARK  130  A    between atoms: _346  and  _347
REMARK  131  A    between atoms: _346  and  _349
REMARK  132  A    between atoms: _349  and  _350
REMARK  133  A    between atoms: _353  and  _355
REMARK  134  A    between atoms: _355  and  _356
REMARK  135  A    between atoms: _355  and  _358
REMARK  136  A    between atoms: _358  and  _359
REMARK  137  A    between atoms: _362  and  _364
REMARK  138  A    between atoms: _364  and  _365
REMARK  139  A    between atoms: _368  and  _370
REMARK  140  A    between atoms: _370  and  _371
REMARK  141  A    between atoms: _373  and  _375
REMARK  142  A    between atoms: _375  and  _376
REMARK  143  A    between atoms: _375  and  _378
REMARK  144  A    between atoms: _378  and  _379
REMARK  145  A    between atoms: _389  and  _391
REMARK  146  A    between atoms: _391  and  _392
REMARK  147  A    between atoms: _391  and  _394
REMARK  148  A    between atoms: _394  and  _395
REMARK  149  A    between atoms: _395  and  _396
REMARK  150  A    between atoms: _399  and  _401
REMARK  151  A    between atoms: _401  and  _402
REMARK  152  A    between atoms: _401  and  _404
REMARK  153  A    between atoms: _404  and  _405
REMARK  154  A    between atoms: _405  and  _406
REMARK  155  A    between atoms: _411  and  _413
REMARK  156  A    between atoms: _413  and  _414
REMARK  157  A    between atoms: _413  and  _416
REMARK  158  A    between atoms: _420  and  _421
REMARK  159  A    between atoms: _426  and  _428
REMARK  160  A    between atoms: _428  and  _429
REMARK  161  A    between atoms: _428  and  _431
REMARK  162  A    between atoms: _431  and  _432
REMARK  163  A    between atoms: _438  and  _440
REMARK  164  A    between atoms: _440  and  _441
REMARK  165  A    between atoms: _440  and  _443
REMARK  166  A    between atoms: _443  and  _444
REMARK  167  A    between atoms: _449  and  _450
REMARK  168  A    between atoms: _452  and  _454
REMARK  169  A    between atoms: _454  and  _455
REMARK  170  A    between atoms: _457  and  _459
REMARK  171  A    between atoms: _459  and  _460
REMARK  172  A    between atoms: _459  and  _462
REMARK  173  A    between atoms: _462  and  _463
REMARK  174  A    between atoms: _463  and  _464
REMARK  175  A    between atoms: _464  and  _465
REMARK  176  A    between atoms: _474  and  _476
REMARK  177  A    between atoms: _476  and  _477
REMARK  178  A    between atoms: _476  and  _479
REMARK  179  A    between atoms: _479  and  _480
REMARK  180  A    between atoms: _483  and  _485
REMARK  181  A    between atoms: _485  and  _486
REMARK  182  A    between atoms: _485  and  _488
REMARK  183  A    between atoms: _488  and  _489
REMARK  184  A    between atoms: _492  and  _494
REMARK  185  A    between atoms: _494  and  _495
REMARK  186  A    between atoms: _494  and  _497
REMARK  187  A    between atoms: _497  and  _498
REMARK  188  A    between atoms: _501  and  _503
REMARK  189  A    between atoms: _503  and  _504
REMARK  190  A    between atoms: _503  and  _506
REMARK  191  A    between atoms: _506  and  _507
REMARK  192  A    between atoms: _507  and  _508
REMARK  193  A    between atoms: _508  and  _509
REMARK  194  A    between atoms: _518  and  _520
REMARK  195  A    between atoms: _520  and  _521
REMARK  196  A    between atoms: _520  and  _523
REMARK  197  A    between atoms: _523  and  _524
REMARK  198  A    between atoms: _527  and  _529
REMARK  199  A    between atoms: _529  and  _530
REMARK  200  A    between atoms: _533  and  _535
REMARK  201  A    between atoms: _535  and  _536
REMARK  202  A    between atoms: _535  and  _538
REMARK  203  A    between atoms: _538  and  _539
REMARK  204  A    between atoms: _541  and  _543
REMARK  205  A    between atoms: _543  and  _544
REMARK  206  A    between atoms: _543  and  _546
REMARK  207  A    between atoms: _546  and  _547
REMARK  208  A    between atoms: _547  and  _548
REMARK  209  A    between atoms: _550  and  _552
REMARK  210  A    between atoms: _552  and  _553
REMARK  211  A    between atoms: _552  and  _555
REMARK  212  A    between atoms: _555  and  _556
REMARK  213  A    between atoms: _562  and  _564
REMARK  214  A    between atoms: _564  and  _565
REMARK  215  A    between atoms: _564  and  _567
REMARK  216  A    between atoms: _567  and  _568
REMARK  217  A    between atoms: _578  and  _580
REMARK  218  A    between atoms: _580  and  _581
REMARK  219  A    between atoms: _580  and  _583
REMARK  220  A    between atoms: _583  and  _584
REMARK  221  A    between atoms: _589  and  _591
REMARK  222  A    between atoms: _591  and  _592
REMARK  223  A    between atoms: _591  and  _594
REMARK  224  A    between atoms: _594  and  _595
REMARK  225  A    between atoms: _595  and  _596
REMARK                            x       y       z     vdW  Elec       q    Type
REMARK                         _______ _______ _______ _____ _____    ______ ____
ROOT
ATOM      1  CA  TYR A   4      24.928  37.901 108.431  0.00  0.00    +0.153 C 
ENDROOT
BRANCH   1   4
ATOM      2  C   PHE A   3      24.997  39.724 110.073  0.00  0.00    +0.241 C 
ATOM      3  O   PHE A   3      24.692  38.973 110.980  0.00  0.00    -0.273 OA
ATOM      4  N   TYR A   4      25.153  39.309 108.818  0.00  0.00    -0.297 N 
ATOM      5  H   TYR A   4      25.441  39.994 108.090  0.00  0.00    +0.150 HD
BRANCH   2   6
ATOM      6  CA  PHE A   3      25.236  41.226 110.355  0.00  0.00    +0.153 C 
BRANCH   6   8
ATOM      7  C   PRO A   2      26.253  42.297 108.436  0.00  0.00    +0.241 C 
ATOM      8  N   PHE A   3      25.151  41.918 109.077  0.00  0.00    -0.297 N 
ATOM      9  H   PHE A   3      24.219  42.118 108.661  0.00  0.00    +0.150 HD
ATOM     10  O   PRO A   2      27.392  42.143 108.895  0.00  0.00    -0.273 OA
BRANCH   7  14
ATOM     11  C   VAL A   1      26.618  45.350 107.065  0.00  0.00    +0.241 C 
ATOM     12  O   VAL A   1      25.517  45.645 107.530  0.00  0.00    -0.273 OA
ATOM     13  N   PRO A   2      26.970  44.079 106.832  0.00  0.00    -0.272 N 
ATOM     14  CA  PRO A   2      26.059  42.960 107.080  0.00  0.00    +0.152 C 
ATOM     15  CB  PRO A   2      26.394  42.004 105.928  0.00  0.00    +0.031 C 
ATOM     16  CG  PRO A   2      27.930  42.114 105.865  0.00  0.00    +0.024 C 
ATOM     17  CD  PRO A   2      28.188  43.645 106.125  0.00  0.00    +0.094 C 
BRANCH  11  18
ATOM     18  CA  VAL A   1      27.648  46.434 106.755  0.00  0.00    +0.145 C 
BRANCH  18  19
ATOM     19  CB  VAL A   1      28.608  46.595 107.984  0.00  0.00    +0.025 C 
ATOM     20  CG2 VAL A   1      27.813  46.908 109.266  0.00  0.00    +0.002 C 
ATOM     21  CG1 VAL A   1      29.624  47.719 107.718  0.00  0.00    +0.002 C 
ENDBRANCH  18  19
BRANCH  18  22
ATOM     22  N   VAL A   1      26.847  47.626 106.462  0.00  0.00    -0.238 NA
ATOM     23  H   VAL A   1      26.022  47.842 107.057  0.00  0.00    +0.142 HD
ENDBRANCH  18  22
ENDBRANCH  11  18
ENDBRANCH   7  14
ENDBRANCH   6   8
BRANCH   6  24
ATOM     24  CB  PHE A   3      24.174  41.770 111.347  0.00  0.00    +0.055 C 
BRANCH  24  25
ATOM     25  CG  PHE A   3      24.634  42.974 112.154  0.00  0.00    -0.020 A 
ATOM     26  CD2 PHE A   3      24.076  43.240 113.410  0.00  0.00    -0.004 A 
ATOM     27  CE2 PHE A   3      24.490  44.338 114.185  0.00  0.00    -0.000 A 
ATOM     28  CZ  PHE A   3      25.486  45.195 113.690  0.00  0.00    -0.000 A 
ATOM     29  CE1 PHE A   3      26.049  44.944 112.437  0.00  0.00    -0.000 A 
ATOM     30  CD1 PHE A   3      25.623  43.833 111.668  0.00  0.00    -0.004 A 
ENDBRANCH  24  25
ENDBRANCH   6  24
ENDBRANCH   2   6
ENDBRANCH   1   4
BRANCH   1  31
ATOM     31  C   TYR A   4      25.993  37.465 107.440  0.00  0.00    +0.241 C 
ATOM     32  N   GLY A   5      26.111  36.152 107.246  0.00  0.00    -0.295 N 
ATOM     33  H   GLY A   5      25.512  35.490 107.779  0.00  0.00    +0.150 HD
ATOM     34  O   TYR A   4      26.677  38.297 106.839  0.00  0.00    -0.273 OA
BRANCH  32  35
ATOM     35  CA  GLY A   5      27.081  35.649 106.287  0.00  0.00    +0.176 C 
BRANCH  35  36
ATOM     36  C   GLY A   5      26.371  34.887 105.178  0.00  0.00    +0.243 C 
ATOM     37  O   GLY A   5      25.225  34.468 105.352  0.00  0.00    -0.273 OA
ATOM     38  N   ARG A   6      27.038  34.725 104.039  0.00  0.00    -0.298 N 
ATOM     39  H   ARG A   6      27.980  35.153 103.935  0.00  0.00    +0.150 HD
BRANCH  38  40
ATOM     40  CA  ARG A   6      26.475  33.959 102.933  0.00  0.00    +0.137 C 
BRANCH  40  41
ATOM     41  C   ARG A   6      27.367  32.727 102.758  0.00  0.00    +0.227 C 
ATOM     42  O   ARG A   6      28.609  32.841 102.760  0.00  0.00    -0.286 OA
ENDBRANCH  40  41
BRANCH  40  43
ATOM     43  CB  ARG A   6      26.412  34.805 101.660  0.00  0.00    +0.031 C 
BRANCH  43  44
ATOM     44  CG  ARG A   6      25.271  35.825 101.720  0.00  0.00    +0.045 C 
BRANCH  44  45
ATOM     45  CD  ARG A   6      25.096  36.609 100.423  0.00  0.00    +0.174 C 
BRANCH  45  46
ATOM     46  NE  ARG A   6      23.938  37.498 100.487  0.00  0.00    -0.265 N 
ATOM     47  HE  ARG A   6      24.117  38.522 100.529  0.00  0.00    +0.259 HD
ATOM     48  CZ  ARG A   6      22.665  37.091 100.496  0.00  0.00    +0.342 C 
ATOM     49  NH2 ARG A   6      21.679  37.981 100.602  0.00  0.00    -0.292 N 
ATOM     50 HH21 ARG A   6      21.899  38.995 100.678  0.00  0.00    +0.255 HD
ATOM     51 HH22 ARG A   6      20.689  37.662 100.609  0.00  0.00    +0.255 HD
ATOM     52  NH1 ARG A   6      22.364  35.797 100.432  0.00  0.00    -0.292 N 
ATOM     53 HH11 ARG A   6      21.369  35.493 100.440  0.00  0.00    +0.255 HD
ATOM     54 HH12 ARG A   6      23.123  35.089 100.374  0.00  0.00    +0.255 HD
ENDBRANCH  45  46
ENDBRANCH  44  45
ENDBRANCH  43  44
ENDBRANCH  40  43
ENDBRANCH  38  40
ENDBRANCH  35  36
ENDBRANCH  32  35
ENDBRANCH   1  31
BRANCH   1  55
ATOM     55  CB  TYR A   4      23.561  37.724 107.755  0.00  0.00    +0.055 C 
BRANCH  55  56
ATOM     56  CG  TYR A   4      23.441  38.597 106.524  0.00  0.00    -0.020 A 
ATOM     57  CD2 TYR A   4      23.130  39.960 106.640  0.00  0.00    -0.001 A 
ATOM     58  CE2 TYR A   4      23.151  40.807 105.525  0.00  0.00    +0.036 A 
ATOM     59  CZ  TYR A   4      23.493  40.292 104.281  0.00  0.00    +0.134 A 
ATOM     60  CE1 TYR A   4      23.797  38.940 104.140  0.00  0.00    +0.036 A 
ATOM     61  CD1 TYR A   4      23.761  38.106 105.272  0.00  0.00    -0.001 A 
BRANCH  59  62
ATOM     62  OH  TYR A   4      23.586  41.117 103.189  0.00  0.00    -0.506 OA
ATOM     63  HH  TYR A   4      22.970  40.798 102.482  0.00  0.00    +0.292 HD
ENDBRANCH  59  62
ENDBRANCH  55  56
ENDBRANCH   1  55
TORSDOF 21
REMARK  Name = ../refined-set-2016/1ur9/1ur9_pocket.pdb
REMARK  225 active torsions:
REMARK  status: ('A' for Active; 'I' for Inactive)
REMARK    1  A    between atoms: _1  and  _3
REMARK    2  A    between atoms: _3  and  _4
REMARK    3  A    between atoms: _3  and  _6
REMARK    4  A    between atoms: _6  and  _7
REMARK    5  A    between atoms: _12  and  _13
REMARK    6  A    between atoms: _15  and  _17
REMARK    7  A    between atoms: _17  and  _18
REMARK    8  A    between atoms: _17  and  _20
REMARK    9  A    between atoms: _20  and  _21
REMARK   10  A    between atoms: _28  and  _29
REMARK   11  A    between atoms: _34  and  _36
REMARK   12  A    between atoms: _36  and  _37
REMARK   13  A    between atoms: _36  and  _39
REMARK   14  A    between atoms: _39  and  _40
REMARK   15  A    between atoms: _45  and  _47
REMARK   16  A    between atoms: _47  and  _48
REMARK   17  A    between atoms: _47  and  _50
REMARK   18  A    between atoms: _50  and  _51
REMARK   19  A    between atoms: _53  and  _55
REMARK   20  A    between atoms: _55  and  _56
REMARK   21  A    between atoms: _55  and  _58
REMARK   22  A    between atoms: _58  and  _59
REMARK   23  A    between atoms: _65  and  _67
REMARK   24  A    between atoms: _67  and  _68
REMARK   25  A    between atoms: _67  and  _70
REMARK   26  A    between atoms: _70  and  _71
REMARK   27  A    between atoms: _73  and  _75
REMARK   28  A    between atoms: _75  and  _76
REMARK   29  A    between atoms: _78  and  _80
REMARK   30  A    between atoms: _80  and  _81
REMARK   31  A    between atoms: _83  and  _85
REMARK   32  A    between atoms: _85  and  _86
REMARK   33  A    between atoms: _85  and  _88
REMARK   34  A    between atoms: _88  and  _89
REMARK   35  A    between atoms: _99  and  _101
REMARK   36  A    between atoms: _101  and  _102
REMARK   37  A    between atoms: _101  and  _104
REMARK   38  A    between atoms: _104  and  _105
REMARK   39  A    between atoms: _110  and  _111
REMARK   40  A    between atoms: _113  and  _115
REMARK   41  A    between atoms: _115  and  _116
REMARK   42  A    between atoms: _115  and  _118
REMARK   43  A    between atoms: _118  and  _119
REMARK   44  A    between atoms: _124  and  _125
REMARK   45  A    between atoms: _127  and  _129
REMARK   46  A    between atoms: _129  and  _130
REMARK   47  A    between atoms: _129  and  _132
REMARK   48  A    between atoms: _132  and  _133
REMARK   49  A    between atoms: _135  and  _137
REMARK   50  A    between atoms: _137  and  _138
REMARK   51  A    between atoms: _137  and  _140
REMARK   52  A    between atoms: _140  and  _141
REMARK   53  A    between atoms: _146  and  _148
REMARK   54  A    between atoms: _148  and  _149
REMARK   55  A    between atoms: _148  and  _151
REMARK   56  A    between atoms: _151  and  _152
REMARK   57  A    between atoms: _155  and  _157
REMARK   58  A    between atoms: _157  and  _158
REMARK   59  A    between atoms: _157  and  _160
REMARK   60  A    between atoms: _160  and  _161
REMARK   61  A    between atoms: _164  and  _166
REMARK   62  A    between atoms: _166  and  _167
REMARK   63  A    between atoms: _166  and  _169
REMARK   64  A    between atoms: _169  and  _170
REMARK   65  A    between atoms: _175  and  _177
REMARK   66  A    between atoms: _177  and  _178
REMARK   67  A    between atoms: _177  and  _180
REMARK   68  A    between atoms: _180  and  _181
REMARK   69  A    between atoms: _191  and  _193
REMARK   70  A    between atoms: _193  and  _194
REMARK   71  A    between atoms: _193  and  _196
REMARK   72  A    between atoms: _196  and  _197
REMARK   73  A    between atoms: _197  and  _198
REMARK   74  A    between atoms: _201  and  _203
REMARK   75  A    between atoms: _203  and  _204
REMARK   76  A    between atoms: _203  and  _206
REMARK   77  A    between atoms: _206  and  _207
REMARK   78  A    between atoms: _212  and  _213
REMARK   79  A    between atoms: _215  and  _217
REMARK   80  A    between atoms: _217  and  _218
REMARK   81  A    between atoms: _217  and  _220
REMARK   82  A    between atoms: _220  and  _221
REMARK   83  A    between atoms: _224  and  _226
REMARK   84  A    between atoms: _226  and  _227
REMARK   85  A    between atoms: _230  and  _232
REMARK   86  A    between atoms: _232  and  _233
REMARK   87  A    between atoms: _235  and  _237
REMARK   88  A    between atoms: _237  and  _238
REMARK   89  A    between atoms: _241  and  _243
REMARK   90  A    between atoms: _243  and  _244
REMARK   91  A    between atoms: _246  and  _248
REMARK   92  A    between atoms: _248  and  _249
REMARK   93  A    between atoms: _251  and  _253
REMARK   94  A    between atoms: _253  and  _254
REMARK   95  A    between atoms: _253  and  _256
REMARK   96  A    between atoms: _256  and  _257
REMARK   97  A    between atoms: _263  and  _265
REMARK   98  A    between atoms: _265  and  _266
REMARK   99  A    between atoms: _265  and  _268
REMARK  100  A    between atoms: _268  and  _269
REMARK  101  A    between atoms: _275  and  _277
REMARK  102  A    between atoms: _277  and  _278
REMARK  103  A    between atoms: _277  and  _280
REMARK  104  A    between atoms: _280  and  _281
REMARK  105  A    between atoms: _281  and  _282
REMARK  106  A    between atoms: _282  and  _283
REMARK  107  A    between atoms: _292  and  _294
REMARK  108  A    between atoms: _294  and  _295
REMARK  109  A    between atoms: _294  and  _297
REMARK  110  A    between atoms: _297  and  _298
REMARK  111  A    between atoms: _303  and  _305
REMARK  112  A    between atoms: _305  and  _306
REMARK  113  A    between atoms: _305  and  _308
REMARK  114  A    between atoms: _308  and  _309
REMARK  115  A    between atoms: _312  and  _314
REMARK  116  A    between atoms: _314  and  _315
REMARK  117  A    between atoms: _314  and  _317
REMARK  118  A    between atoms: _317  and  _318
REMARK  119  A    between atoms: _318  and  _319
REMARK  120  A    between atoms: _321  and  _323
REMARK  121  A    between atoms: _323  and  _324
REMARK  122  A    between atoms: _323  and  _326
REMARK  123  A    between atoms: _326  and  _327
REMARK  124  A    between atoms: _330  and  _332
REMARK  125  A    between atoms: _332  and  _333
REMARK  126  A    between atoms: _332  and  _335
REMARK  127  A    between atoms: _335  and  _336
REMARK  128  A    between atoms: _341  and  _342
REMARK  129  A    between atoms: _344  and  _346
REMARK  130  A    between atoms: _346  and  _347
REMARK  131  A    between atoms: _346  and  _349
REMARK  132  A    between atoms: _349  and  _350
REMARK  133  A    between atoms: _353  and  _355
REMARK  134  A    between atoms: _355  and  _356
REMARK  135  A    between atoms: _355  and  _358
REMARK  136  A    between atoms: _358  and  _359
REMARK  137  A    between atoms: _362  and  _364
REMARK  138  A    between atoms: _364  and  _365
REMARK  139  A    between atoms: _368  and  _370
REMARK  140  A    between atoms: _370  and  _371
REMARK  141  A    between atoms: _373  and  _375
REMARK  142  A    between atoms: _375  and  _376
REMARK  143  A    between atoms: _375  and  _378
REMARK  144  A    between atoms: _378  and  _379
REMARK  145  A    between atoms: _389  and  _391
REMARK  146  A    between atoms: _391  and  _392
REMARK  147  A    between atoms: _391  and  _394
REMARK  148  A    between atoms: _394  and  _395
REMARK  149  A    between atoms: _395  and  _396
REMARK  150  A    between atoms: _399  and  _401
REMARK  151  A    between atoms: _401  and  _402
REMARK  152  A    between atoms: _401  and  _404
REMARK  153  A    between atoms: _404  and  _405
REMARK  154  A    between atoms: _405  and  _406
REMARK  155  A    between atoms: _411  and  _413
REMARK  156  A    between atoms: _413  and  _414
REMARK  157  A    between atoms: _413  and  _416
REMARK  158  A    between atoms: _420  and  _421
REMARK  159  A    between atoms: _426  and  _428
REMARK  160  A    between atoms: _428  and  _429
REMARK  161  A    between atoms: _428  and  _431
REMARK  162  A    between atoms: _431  and  _432
REMARK  163  A    between atoms: _438  and  _440
REMARK  164  A    between atoms: _440  and  _441
REMARK  165  A    between atoms: _440  and  _443
REMARK  166  A    between atoms: _443  and  _444
REMARK  167  A    between atoms: _449  and  _450
REMARK  168  A    between atoms: _452  and  _454
REMARK  169  A    between atoms: _454  and  _455
REMARK  170  A    between atoms: _457  and  _459
REMARK  171  A    between atoms: _459  and  _460
REMARK  172  A    between atoms: _459  and  _462
REMARK  173  A    between atoms: _462  and  _463
REMARK  174  A    between atoms: _463  and  _464
REMARK  175  A    between atoms: _464  and  _465
REMARK  176  A    between atoms: _474  and  _476
REMARK  177  A    between atoms: _476  and  _477
REMARK  178  A    between atoms: _476  and  _479
REMARK  179  A    between atoms: _479  and  _480
REMARK  180  A    between atoms: _483  and  _485
REMARK  181  A    between atoms: _485  and  _486
REMARK  182  A    between atoms: _485  and  _488
REMARK  183  A    between atoms: _488  and  _489
REMARK  184  A    between atoms: _492  and  _494
REMARK  185  A    between atoms: _494  and  _495
REMARK  186  A    between atoms: _494  and  _497
REMARK  187  A    between atoms: _497  and  _498
REMARK  188  A    between atoms: _501  and  _503
REMARK  189  A    between atoms: _503  and  _504
REMARK  190  A    between atoms: _503  and  _506
REMARK  191  A    between atoms: _506  and  _507
REMARK  192  A    between atoms: _507  and  _508
REMARK  193  A    between atoms: _508  and  _509
REMARK  194  A    between atoms: _518  and  _520
REMARK  195  A    between atoms: _520  and  _521
REMARK  196  A    between atoms: _520  and  _523
REMARK  197  A    between atoms: _523  and  _524
REMARK  198  A    between atoms: _527  and  _529
REMARK  199  A    between atoms: _529  and  _530
REMARK  200  A    between atoms: _533  and  _535
REMARK  201  A    between atoms: _535  and  _536
REMARK  202  A    between atoms: _535  and  _538
REMARK  203  A    between atoms: _538  and  _539
REMARK  204  A    between atoms: _541  and  _543
REMARK  205  A    between atoms: _543  and  _544
REMARK  206  A    between atoms: _543  and  _546
REMARK  207  A    between atoms: _546  and  _547
REMARK  208  A    between atoms: _547  and  _548
REMARK  209  A    between atoms: _550  and  _552
REMARK  210  A    between atoms: _552  and  _553
REMARK  211  A    between atoms: _552  and  _555
REMARK  212  A    between atoms: _555  and  _556
REMARK  213  A    between atoms: _562  and  _564
REMARK  214  A    between atoms: _564  and  _565
REMARK  215  A    between atoms: _564  and  _567
REMARK  216  A    between atoms: _567  and  _568
REMARK  217  A    between atoms: _578  and  _580
REMARK  218  A    between atoms: _580  and  _581
REMARK  219  A    between atoms: _580  and  _583
REMARK  220  A    between atoms: _583  and  _584
REMARK  221  A    between atoms: _589  and  _591
REMARK  222  A    between atoms: _591  and  _592
REMARK  223  A    between atoms: _591  and  _594
REMARK  224  A    between atoms: _594  and  _595
REMARK  225  A    between atoms: _595  and  _596
REMARK                            x       y       z     vdW  Elec       q    Type
REMARK                         _______ _______ _______ _____ _____    ______ ____
ROOT
ATOM      1  CA  ASP A   1      15.032  32.413  95.454  0.00  0.00    +0.144 C 
ENDROOT
BRANCH   1   2
ATOM      2  N   ASP A   1      15.722  31.777  94.351  0.00  0.00    -0.239 NA
ATOM      3  H   ASP A   1      15.448  32.045  93.384  0.00  0.00    +0.142 HD
ENDBRANCH   1   2
BRANCH   1   4
ATOM      4  C   ASP A   1      13.728  31.629  95.582  0.00  0.00    +0.225 C 
ATOM      5  O   ASP A   1      12.864  31.674  94.688  0.00  0.00    -0.287 OA
ENDBRANCH   1   4
BRANCH   1   6
ATOM      6  CB  ASP A   1      14.717  33.883  95.118  0.00  0.00    +0.139 C 
BRANCH   6   7
ATOM      7  CG  ASP A   1      14.468  34.736  96.354  0.00  0.00    +0.367 C 
ATOM      8  OD2 ASP A   1      13.646  34.347  97.213  0.00  0.00    -0.246 OA
ATOM      9  OD1 ASP A   1      15.089  35.816  96.467  0.00  0.00    -0.246 OA
ENDBRANCH   6   7
ENDBRANCH   1   6
TORSDOF 4
REMARK  Name = ../refined-set-2016/1ur9/1ur9_pocket.pdb
REMARK  225 active torsions:
REMARK  status: ('A' for Active; 'I' for Inactive)
REMARK    1  A    between atoms: _1  and  _3
REMARK    2  A    between atoms: _3  and  _4
REMARK    3  A    between atoms: _3  and  _6
REMARK    4  A    between atoms: _6  and  _7
REMARK    5  A    between atoms: _12  and  _13
REMARK    6  A    between atoms: _15  and  _17
REMARK    7  A    between atoms: _17  and  _18
REMARK    8  A    between atoms: _17  and  _20
REMARK    9  A    between atoms: _20  and  _21
REMARK   10  A    between atoms: _28  and  _29
REMARK   11  A    between atoms: _34  and  _36
REMARK   12  A    between atoms: _36  and  _37
REMARK   13  A    between atoms: _36  and  _39
REMARK   14  A    between atoms: _39  and  _40
REMARK   15  A    between atoms: _45  and  _47
REMARK   16  A    between atoms: _47  and  _48
REMARK   17  A    between atoms: _47  and  _50
REMARK   18  A    between atoms: _50  and  _51
REMARK   19  A    between atoms: _53  and  _55
REMARK   20  A    between atoms: _55  and  _56
REMARK   21  A    between atoms: _55  and  _58
REMARK   22  A    between atoms: _58  and  _59
REMARK   23  A    between atoms: _65  and  _67
REMARK   24  A    between atoms: _67  and  _68
REMARK   25  A    between atoms: _67  and  _70
REMARK   26  A    between atoms: _70  and  _71
REMARK   27  A    between atoms: _73  and  _75
REMARK   28  A    between atoms: _75  and  _76
REMARK   29  A    between atoms: _78  and  _80
REMARK   30  A    between atoms: _80  and  _81
REMARK   31  A    between atoms: _83  and  _85
REMARK   32  A    between atoms: _85  and  _86
REMARK   33  A    between atoms: _85  and  _88
REMARK   34  A    between atoms: _88  and  _89
REMARK   35  A    between atoms: _99  and  _101
REMARK   36  A    between atoms: _101  and  _102
REMARK   37  A    between atoms: _101  and  _104
REMARK   38  A    between atoms: _104  and  _105
REMARK   39  A    between atoms: _110  and  _111
REMARK   40  A    between atoms: _113  and  _115
REMARK   41  A    between atoms: _115  and  _116
REMARK   42  A    between atoms: _115  and  _118
REMARK   43  A    between atoms: _118  and  _119
REMARK   44  A    between atoms: _124  and  _125
REMARK   45  A    between atoms: _127  and  _129
REMARK   46  A    between atoms: _129  and  _130
REMARK   47  A    between atoms: _129  and  _132
REMARK   48  A    between atoms: _132  and  _133
REMARK   49  A    between atoms: _135  and  _137
REMARK   50  A    between atoms: _137  and  _138
REMARK   51  A    between atoms: _137  and  _140
REMARK   52  A    between atoms: _140  and  _141
REMARK   53  A    between atoms: _146  and  _148
REMARK   54  A    between atoms: _148  and  _149
REMARK   55  A    between atoms: _148  and  _151
REMARK   56  A    between atoms: _151  and  _152
REMARK   57  A    between atoms: _155  and  _157
REMARK   58  A    between atoms: _157  and  _158
REMARK   59  A    between atoms: _157  and  _160
REMARK   60  A    between atoms: _160  and  _161
REMARK   61  A    between atoms: _164  and  _166
REMARK   62  A    between atoms: _166  and  _167
REMARK   63  A    between atoms: _166  and  _169
REMARK   64  A    between atoms: _169  and  _170
REMARK   65  A    between atoms: _175  and  _177
REMARK   66  A    between atoms: _177  and  _178
REMARK   67  A    between atoms: _177  and  _180
REMARK   68  A    between atoms: _180  and  _181
REMARK   69  A    between atoms: _191  and  _193
REMARK   70  A    between atoms: _193  and  _194
REMARK   71  A    between atoms: _193  and  _196
REMARK   72  A    between atoms: _196  and  _197
REMARK   73  A    between atoms: _197  and  _198
REMARK   74  A    between atoms: _201  and  _203
REMARK   75  A    between atoms: _203  and  _204
REMARK   76  A    between atoms: _203  and  _206
REMARK   77  A    between atoms: _206  and  _207
REMARK   78  A    between atoms: _212  and  _213
REMARK   79  A    between atoms: _215  and  _217
REMARK   80  A    between atoms: _217  and  _218
REMARK   81  A    between atoms: _217  and  _220
REMARK   82  A    between atoms: _220  and  _221
REMARK   83  A    between atoms: _224  and  _226
REMARK   84  A    between atoms: _226  and  _227
REMARK   85  A    between atoms: _230  and  _232
REMARK   86  A    between atoms: _232  and  _233
REMARK   87  A    between atoms: _235  and  _237
REMARK   88  A    between atoms: _237  and  _238
REMARK   89  A    between atoms: _241  and  _243
REMARK   90  A    between atoms: _243  and  _244
REMARK   91  A    between atoms: _246  and  _248
REMARK   92  A    between atoms: _248  and  _249
REMARK   93  A    between atoms: _251  and  _253
REMARK   94  A    between atoms: _253  and  _254
REMARK   95  A    between atoms: _253  and  _256
REMARK   96  A    between atoms: _256  and  _257
REMARK   97  A    between atoms: _263  and  _265
REMARK   98  A    between atoms: _265  and  _266
REMARK   99  A    between atoms: _265  and  _268
REMARK  100  A    between atoms: _268  and  _269
REMARK  101  A    between atoms: _275  and  _277
REMARK  102  A    between atoms: _277  and  _278
REMARK  103  A    between atoms: _277  and  _280
REMARK  104  A    between atoms: _280  and  _281
REMARK  105  A    between atoms: _281  and  _282
REMARK  106  A    between atoms: _282  and  _283
REMARK  107  A    between atoms: _292  and  _294
REMARK  108  A    between atoms: _294  and  _295
REMARK  109  A    between atoms: _294  and  _297
REMARK  110  A    between atoms: _297  and  _298
REMARK  111  A    between atoms: _303  and  _305
REMARK  112  A    between atoms: _305  and  _306
REMARK  113  A    between atoms: _305  and  _308
REMARK  114  A    between atoms: _308  and  _309
REMARK  115  A    between atoms: _312  and  _314
REMARK  116  A    between atoms: _314  and  _315
REMARK  117  A    between atoms: _314  and  _317
REMARK  118  A    between atoms: _317  and  _318
REMARK  119  A    between atoms: _318  and  _319
REMARK  120  A    between atoms: _321  and  _323
REMARK  121  A    between atoms: _323  and  _324
REMARK  122  A    between atoms: _323  and  _326
REMARK  123  A    between atoms: _326  and  _327
REMARK  124  A    between atoms: _330  and  _332
REMARK  125  A    between atoms: _332  and  _333
REMARK  126  A    between atoms: _332  and  _335
REMARK  127  A    between atoms: _335  and  _336
REMARK  128  A    between atoms: _341  and  _342
REMARK  129  A    between atoms: _344  and  _346
REMARK  130  A    between atoms: _346  and  _347
REMARK  131  A    between atoms: _346  and  _349
REMARK  132  A    between atoms: _349  and  _350
REMARK  133  A    between atoms: _353  and  _355
REMARK  134  A    between atoms: _355  and  _356
REMARK  135  A    between atoms: _355  and  _358
REMARK  136  A    between atoms: _358  and  _359
REMARK  137  A    between atoms: _362  and  _364
REMARK  138  A    between atoms: _364  and  _365
REMARK  139  A    between atoms: _368  and  _370
REMARK  140  A    between atoms: _370  and  _371
REMARK  141  A    between atoms: _373  and  _375
REMARK  142  A    between atoms: _375  and  _376
REMARK  143  A    between atoms: _375  and  _378
REMARK  144  A    between atoms: _378  and  _379
REMARK  145  A    between atoms: _389  and  _391
REMARK  146  A    between atoms: _391  and  _392
REMARK  147  A    between atoms: _391  and  _394
REMARK  148  A    between atoms: _394  and  _395
REMARK  149  A    between atoms: _395  and  _396
REMARK  150  A    between atoms: _399  and  _401
REMARK  151  A    between atoms: _401  and  _402
REMARK  152  A    between atoms: _401  and  _404
REMARK  153  A    between atoms: _404  and  _405
REMARK  154  A    between atoms: _405  and  _406
REMARK  155  A    between atoms: _411  and  _413
REMARK  156  A    between atoms: _413  and  _414
REMARK  157  A    between atoms: _413  and  _416
REMARK  158  A    between atoms: _420  and  _421
REMARK  159  A    between atoms: _426  and  _428
REMARK  160  A    between atoms: _428  and  _429
REMARK  161  A    between atoms: _428  and  _431
REMARK  162  A    between atoms: _431  and  _432
REMARK  163  A    between atoms: _438  and  _440
REMARK  164  A    between atoms: _440  and  _441
REMARK  165  A    between atoms: _440  and  _443
REMARK  166  A    between atoms: _443  and  _444
REMARK  167  A    between atoms: _449  and  _450
REMARK  168  A    between atoms: _452  and  _454
REMARK  169  A    between atoms: _454  and  _455
REMARK  170  A    between atoms: _457  and  _459
REMARK  171  A    between atoms: _459  and  _460
REMARK  172  A    between atoms: _459  and  _462
REMARK  173  A    between atoms: _462  and  _463
REMARK  174  A    between atoms: _463  and  _464
REMARK  175  A    between atoms: _464  and  _465
REMARK  176  A    between atoms: _474  and  _476
REMARK  177  A    between atoms: _476  and  _477
REMARK  178  A    between atoms: _476  and  _479
REMARK  179  A    between atoms: _479  and  _480
REMARK  180  A    between atoms: _483  and  _485
REMARK  181  A    between atoms: _485  and  _486
REMARK  182  A    between atoms: _485  and  _488
REMARK  183  A    between atoms: _488  and  _489
REMARK  184  A    between atoms: _492  and  _494
REMARK  185  A    between atoms: _494  and  _495
REMARK  186  A    between atoms: _494  and  _497
REMARK  187  A    between atoms: _497  and  _498
REMARK  188  A    between atoms: _501  and  _503
REMARK  189  A    between atoms: _503  and  _504
REMARK  190  A    between atoms: _503  and  _506
REMARK  191  A    between atoms: _506  and  _507
REMARK  192  A    between atoms: _507  and  _508
REMARK  193  A    between atoms: _508  and  _509
REMARK  194  A    between atoms: _518  and  _520
REMARK  195  A    between atoms: _520  and  _521
REMARK  196  A    between atoms: _520  and  _523
REMARK  197  A    between atoms: _523  and  _524
REMARK  198  A    between atoms: _527  and  _529
REMARK  199  A    between atoms: _529  and  _530
REMARK  200  A    between atoms: _533  and  _535
REMARK  201  A    between atoms: _535  and  _536
REMARK  202  A    between atoms: _535  and  _538
REMARK  203  A    between atoms: _538  and  _539
REMARK  204  A    between atoms: _541  and  _543
REMARK  205  A    between atoms: _543  and  _544
REMARK  206  A    between atoms: _543  and  _546
REMARK  207  A    between atoms: _546  and  _547
REMARK  208  A    between atoms: _547  and  _548
REMARK  209  A    between atoms: _550  and  _552
REMARK  210  A    between atoms: _552  and  _553
REMARK  211  A    between atoms: _552  and  _555
REMARK  212  A    between atoms: _555  and  _556
REMARK  213  A    between atoms: _562  and  _564
REMARK  214  A    between atoms: _564  and  _565
REMARK  215  A    between atoms: _564  and  _567
REMARK  216  A    between atoms: _567  and  _568
REMARK  217  A    between atoms: _578  and  _580
REMARK  218  A    between atoms: _580  and  _581
REMARK  219  A    between atoms: _580  and  _583
REMARK  220  A    between atoms: _583  and  _584
REMARK  221  A    between atoms: _589  and  _591
REMARK  222  A    between atoms: _591  and  _592
REMARK  223  A    between atoms: _591  and  _594
REMARK  224  A    between atoms: _594  and  _595
REMARK  225  A    between atoms: _595  and  _596
REMARK                            x       y       z     vdW  Elec       q    Type
REMARK                         _______ _______ _______ _____ _____    ______ ____
ROOT
ATOM      1  CA  ASP A   1      14.260  28.897 108.102  0.00  0.00    +0.144 C 
ENDROOT
BRANCH   1   2
ATOM      2  N   ASP A   1      14.736  28.074 109.217  0.00  0.00    -0.239 NA
ATOM      3  H   ASP A   1      15.742  28.107 109.478  0.00  0.00    +0.142 HD
ENDBRANCH   1   2
BRANCH   1   4
ATOM      4  C   ASP A   1      14.397  28.235 106.742  0.00  0.00    +0.225 C 
ATOM      5  O   ASP A   1      14.173  28.872 105.712  0.00  0.00    -0.287 OA
ENDBRANCH   1   4
BRANCH   1   6
ATOM      6  CB  ASP A   1      14.997  30.241 108.071  0.00  0.00    +0.139 C 
BRANCH   6   7
ATOM      7  CG  ASP A   1      14.835  31.029 109.357  0.00  0.00    +0.367 C 
ATOM      8  OD2 ASP A   1      13.713  31.043 109.913  0.00  0.00    -0.246 OA
ATOM      9  OD1 ASP A   1      15.828  31.648 109.804  0.00  0.00    -0.246 OA
ENDBRANCH   6   7
ENDBRANCH   1   6
TORSDOF 4
REMARK  Name = ../refined-set-2016/1ur9/1ur9_pocket.pdb
REMARK  225 active torsions:
REMARK  status: ('A' for Active; 'I' for Inactive)
REMARK    1  A    between atoms: _1  and  _3
REMARK    2  A    between atoms: _3  and  _4
REMARK    3  A    between atoms: _3  and  _6
REMARK    4  A    between atoms: _6  and  _7
REMARK    5  A    between atoms: _12  and  _13
REMARK    6  A    between atoms: _15  and  _17
REMARK    7  A    between atoms: _17  and  _18
REMARK    8  A    between atoms: _17  and  _20
REMARK    9  A    between atoms: _20  and  _21
REMARK   10  A    between atoms: _28  and  _29
REMARK   11  A    between atoms: _34  and  _36
REMARK   12  A    between atoms: _36  and  _37
REMARK   13  A    between atoms: _36  and  _39
REMARK   14  A    between atoms: _39  and  _40
REMARK   15  A    between atoms: _45  and  _47
REMARK   16  A    between atoms: _47  and  _48
REMARK   17  A    between atoms: _47  and  _50
REMARK   18  A    between atoms: _50  and  _51
REMARK   19  A    between atoms: _53  and  _55
REMARK   20  A    between atoms: _55  and  _56
REMARK   21  A    between atoms: _55  and  _58
REMARK   22  A    between atoms: _58  and  _59
REMARK   23  A    between atoms: _65  and  _67
REMARK   24  A    between atoms: _67  and  _68
REMARK   25  A    between atoms: _67  and  _70
REMARK   26  A    between atoms: _70  and  _71
REMARK   27  A    between atoms: _73  and  _75
REMARK   28  A    between atoms: _75  and  _76
REMARK   29  A    between atoms: _78  and  _80
REMARK   30  A    between atoms: _80  and  _81
REMARK   31  A    between atoms: _83  and  _85
REMARK   32  A    between atoms: _85  and  _86
REMARK   33  A    between atoms: _85  and  _88
REMARK   34  A    between atoms: _88  and  _89
REMARK   35  A    between atoms: _99  and  _101
REMARK   36  A    between atoms: _101  and  _102
REMARK   37  A    between atoms: _101  and  _104
REMARK   38  A    between atoms: _104  and  _105
REMARK   39  A    between atoms: _110  and  _111
REMARK   40  A    between atoms: _113  and  _115
REMARK   41  A    between atoms: _115  and  _116
REMARK   42  A    between atoms: _115  and  _118
REMARK   43  A    between atoms: _118  and  _119
REMARK   44  A    between atoms: _124  and  _125
REMARK   45  A    between atoms: _127  and  _129
REMARK   46  A    between atoms: _129  and  _130
REMARK   47  A    between atoms: _129  and  _132
REMARK   48  A    between atoms: _132  and  _133
REMARK   49  A    between atoms: _135  and  _137
REMARK   50  A    between atoms: _137  and  _138
REMARK   51  A    between atoms: _137  and  _140
REMARK   52  A    between atoms: _140  and  _141
REMARK   53  A    between atoms: _146  and  _148
REMARK   54  A    between atoms: _148  and  _149
REMARK   55  A    between atoms: _148  and  _151
REMARK   56  A    between atoms: _151  and  _152
REMARK   57  A    between atoms: _155  and  _157
REMARK   58  A    between atoms: _157  and  _158
REMARK   59  A    between atoms: _157  and  _160
REMARK   60  A    between atoms: _160  and  _161
REMARK   61  A    between atoms: _164  and  _166
REMARK   62  A    between atoms: _166  and  _167
REMARK   63  A    between atoms: _166  and  _169
REMARK   64  A    between atoms: _169  and  _170
REMARK   65  A    between atoms: _175  and  _177
REMARK   66  A    between atoms: _177  and  _178
REMARK   67  A    between atoms: _177  and  _180
REMARK   68  A    between atoms: _180  and  _181
REMARK   69  A    between atoms: _191  and  _193
REMARK   70  A    between atoms: _193  and  _194
REMARK   71  A    between atoms: _193  and  _196
REMARK   72  A    between atoms: _196  and  _197
REMARK   73  A    between atoms: _197  and  _198
REMARK   74  A    between atoms: _201  and  _203
REMARK   75  A    between atoms: _203  and  _204
REMARK   76  A    between atoms: _203  and  _206
REMARK   77  A    between atoms: _206  and  _207
REMARK   78  A    between atoms: _212  and  _213
REMARK   79  A    between atoms: _215  and  _217
REMARK   80  A    between atoms: _217  and  _218
REMARK   81  A    between atoms: _217  and  _220
REMARK   82  A    between atoms: _220  and  _221
REMARK   83  A    between atoms: _224  and  _226
REMARK   84  A    between atoms: _226  and  _227
REMARK   85  A    between atoms: _230  and  _232
REMARK   86  A    between atoms: _232  and  _233
REMARK   87  A    between atoms: _235  and  _237
REMARK   88  A    between atoms: _237  and  _238
REMARK   89  A    between atoms: _241  and  _243
REMARK   90  A    between atoms: _243  and  _244
REMARK   91  A    between atoms: _246  and  _248
REMARK   92  A    between atoms: _248  and  _249
REMARK   93  A    between atoms: _251  and  _253
REMARK   94  A    between atoms: _253  and  _254
REMARK   95  A    between atoms: _253  and  _256
REMARK   96  A    between atoms: _256  and  _257
REMARK   97  A    between atoms: _263  and  _265
REMARK   98  A    between atoms: _265  and  _266
REMARK   99  A    between atoms: _265  and  _268
REMARK  100  A    between atoms: _268  and  _269
REMARK  101  A    between atoms: _275  and  _277
REMARK  102  A    between atoms: _277  and  _278
REMARK  103  A    between atoms: _277  and  _280
REMARK  104  A    between atoms: _280  and  _281
REMARK  105  A    between atoms: _281  and  _282
REMARK  106  A    between atoms: _282  and  _283
REMARK  107  A    between atoms: _292  and  _294
REMARK  108  A    between atoms: _294  and  _295
REMARK  109  A    between atoms: _294  and  _297
REMARK  110  A    between atoms: _297  and  _298
REMARK  111  A    between atoms: _303  and  _305
REMARK  112  A    between atoms: _305  and  _306
REMARK  113  A    between atoms: _305  and  _308
REMARK  114  A    between atoms: _308  and  _309
REMARK  115  A    between atoms: _312  and  _314
REMARK  116  A    between atoms: _314  and  _315
REMARK  117  A    between atoms: _314  and  _317
REMARK  118  A    between atoms: _317  and  _318
REMARK  119  A    between atoms: _318  and  _319
REMARK  120  A    between atoms: _321  and  _323
REMARK  121  A    between atoms: _323  and  _324
REMARK  122  A    between atoms: _323  and  _326
REMARK  123  A    between atoms: _326  and  _327
REMARK  124  A    between atoms: _330  and  _332
REMARK  125  A    between atoms: _332  and  _333
REMARK  126  A    between atoms: _332  and  _335
REMARK  127  A    between atoms: _335  and  _336
REMARK  128  A    between atoms: _341  and  _342
REMARK  129  A    between atoms: _344  and  _346
REMARK  130  A    between atoms: _346  and  _347
REMARK  131  A    between atoms: _346  and  _349
REMARK  132  A    between atoms: _349  and  _350
REMARK  133  A    between atoms: _353  and  _355
REMARK  134  A    between atoms: _355  and  _356
REMARK  135  A    between atoms: _355  and  _358
REMARK  136  A    between atoms: _358  and  _359
REMARK  137  A    between atoms: _362  and  _364
REMARK  138  A    between atoms: _364  and  _365
REMARK  139  A    between atoms: _368  and  _370
REMARK  140  A    between atoms: _370  and  _371
REMARK  141  A    between atoms: _373  and  _375
REMARK  142  A    between atoms: _375  and  _376
REMARK  143  A    between atoms: _375  and  _378
REMARK  144  A    between atoms: _378  and  _379
REMARK  145  A    between atoms: _389  and  _391
REMARK  146  A    between atoms: _391  and  _392
REMARK  147  A    between atoms: _391  and  _394
REMARK  148  A    between atoms: _394  and  _395
REMARK  149  A    between atoms: _395  and  _396
REMARK  150  A    between atoms: _399  and  _401
REMARK  151  A    between atoms: _401  and  _402
REMARK  152  A    between atoms: _401  and  _404
REMARK  153  A    between atoms: _404  and  _405
REMARK  154  A    between atoms: _405  and  _406
REMARK  155  A    between atoms: _411  and  _413
REMARK  156  A    between atoms: _413  and  _414
REMARK  157  A    between atoms: _413  and  _416
REMARK  158  A    between atoms: _420  and  _421
REMARK  159  A    between atoms: _426  and  _428
REMARK  160  A    between atoms: _428  and  _429
REMARK  161  A    between atoms: _428  and  _431
REMARK  162  A    between atoms: _431  and  _432
REMARK  163  A    between atoms: _438  and  _440
REMARK  164  A    between atoms: _440  and  _441
REMARK  165  A    between atoms: _440  and  _443
REMARK  166  A    between atoms: _443  and  _444
REMARK  167  A    between atoms: _449  and  _450
REMARK  168  A    between atoms: _452  and  _454
REMARK  169  A    between atoms: _454  and  _455
REMARK  170  A    between atoms: _457  and  _459
REMARK  171  A    between atoms: _459  and  _460
REMARK  172  A    between atoms: _459  and  _462
REMARK  173  A    between atoms: _462  and  _463
REMARK  174  A    between atoms: _463  and  _464
REMARK  175  A    between atoms: _464  and  _465
REMARK  176  A    between atoms: _474  and  _476
REMARK  177  A    between atoms: _476  and  _477
REMARK  178  A    between atoms: _476  and  _479
REMARK  179  A    between atoms: _479  and  _480
REMARK  180  A    between atoms: _483  and  _485
REMARK  181  A    between atoms: _485  and  _486
REMARK  182  A    between atoms: _485  and  _488
REMARK  183  A    between atoms: _488  and  _489
REMARK  184  A    between atoms: _492  and  _494
REMARK  185  A    between atoms: _494  and  _495
REMARK  186  A    between atoms: _494  and  _497
REMARK  187  A    between atoms: _497  and  _498
REMARK  188  A    between atoms: _501  and  _503
REMARK  189  A    between atoms: _503  and  _504
REMARK  190  A    between atoms: _503  and  _506
REMARK  191  A    between atoms: _506  and  _507
REMARK  192  A    between atoms: _507  and  _508
REMARK  193  A    between atoms: _508  and  _509
REMARK  194  A    between atoms: _518  and  _520
REMARK  195  A    between atoms: _520  and  _521
REMARK  196  A    between atoms: _520  and  _523
REMARK  197  A    between atoms: _523  and  _524
REMARK  198  A    between atoms: _527  and  _529
REMARK  199  A    between atoms: _529  and  _530
REMARK  200  A    between atoms: _533  and  _535
REMARK  201  A    between atoms: _535  and  _536
REMARK  202  A    between atoms: _535  and  _538
REMARK  203  A    between atoms: _538  and  _539
REMARK  204  A    between atoms: _541  and  _543
REMARK  205  A    between atoms: _543  and  _544
REMARK  206  A    between atoms: _543  and  _546
REMARK  207  A    between atoms: _546  and  _547
REMARK  208  A    between atoms: _547  and  _548
REMARK  209  A    between atoms: _550  and  _552
REMARK  210  A    between atoms: _552  and  _553
REMARK  211  A    between atoms: _552  and  _555
REMARK  212  A    between atoms: _555  and  _556
REMARK  213  A    between atoms: _562  and  _564
REMARK  214  A    between atoms: _564  and  _565
REMARK  215  A    between atoms: _564  and  _567
REMARK  216  A    between atoms: _567  and  _568
REMARK  217  A    between atoms: _578  and  _580
REMARK  218  A    between atoms: _580  and  _581
REMARK  219  A    between atoms: _580  and  _583
REMARK  220  A    between atoms: _583  and  _584
REMARK  221  A    between atoms: _589  and  _591
REMARK  222  A    between atoms: _591  and  _592
REMARK  223  A    between atoms: _591  and  _594
REMARK  224  A    between atoms: _594  and  _595
REMARK  225  A    between atoms: _595  and  _596
REMARK                            x       y       z     vdW  Elec       q    Type
REMARK                         _______ _______ _______ _____ _____    ______ ____
ROOT
ATOM      1  CA  ASP A   1      17.958  27.720 103.745  0.00  0.00    +0.144 C 
ENDROOT
BRANCH   1   2
ATOM      2  N   ASP A   1      17.032  27.157 104.731  0.00  0.00    -0.239 NA
ATOM      3  H   ASP A   1      17.350  27.029 105.713  0.00  0.00    +0.142 HD
ENDBRANCH   1   2
BRANCH   1   4
ATOM      4  C   ASP A   1      19.357  27.727 104.355  0.00  0.00    +0.225 C 
ATOM      5  O   ASP A   1      19.635  28.471 105.297  0.00  0.00    -0.287 OA
ENDBRANCH   1   4
BRANCH   1   6
ATOM      6  CB  ASP A   1      17.554  29.141 103.375  0.00  0.00    +0.139 C 
BRANCH   6   7
ATOM      7  CG  ASP A   1      18.287  29.661 102.142  0.00  0.00    +0.367 C 
ATOM      8  OD2 ASP A   1      19.415  29.201 101.851  0.00  0.00    -0.246 OA
ATOM      9  OD1 ASP A   1      17.734  30.551 101.469  0.00  0.00    -0.246 OA
ENDBRANCH   6   7
ENDBRANCH   1   6
TORSDOF 4
REMARK  Name = ../refined-set-2016/1ur9/1ur9_pocket.pdb
REMARK  225 active torsions:
REMARK  status: ('A' for Active; 'I' for Inactive)
REMARK    1  A    between atoms: _1  and  _3
REMARK    2  A    between atoms: _3  and  _4
REMARK    3  A    between atoms: _3  and  _6
REMARK    4  A    between atoms: _6  and  _7
REMARK    5  A    between atoms: _12  and  _13
REMARK    6  A    between atoms: _15  and  _17
REMARK    7  A    between atoms: _17  and  _18
REMARK    8  A    between atoms: _17  and  _20
REMARK    9  A    between atoms: _20  and  _21
REMARK   10  A    between atoms: _28  and  _29
REMARK   11  A    between atoms: _34  and  _36
REMARK   12  A    between atoms: _36  and  _37
REMARK   13  A    between atoms: _36  and  _39
REMARK   14  A    between atoms: _39  and  _40
REMARK   15  A    between atoms: _45  and  _47
REMARK   16  A    between atoms: _47  and  _48
REMARK   17  A    between atoms: _47  and  _50
REMARK   18  A    between atoms: _50  and  _51
REMARK   19  A    between atoms: _53  and  _55
REMARK   20  A    between atoms: _55  and  _56
REMARK   21  A    between atoms: _55  and  _58
REMARK   22  A    between atoms: _58  and  _59
REMARK   23  A    between atoms: _65  and  _67
REMARK   24  A    between atoms: _67  and  _68
REMARK   25  A    between atoms: _67  and  _70
REMARK   26  A    between atoms: _70  and  _71
REMARK   27  A    between atoms: _73  and  _75
REMARK   28  A    between atoms: _75  and  _76
REMARK   29  A    between atoms: _78  and  _80
REMARK   30  A    between atoms: _80  and  _81
REMARK   31  A    between atoms: _83  and  _85
REMARK   32  A    between atoms: _85  and  _86
REMARK   33  A    between atoms: _85  and  _88
REMARK   34  A    between atoms: _88  and  _89
REMARK   35  A    between atoms: _99  and  _101
REMARK   36  A    between atoms: _101  and  _102
REMARK   37  A    between atoms: _101  and  _104
REMARK   38  A    between atoms: _104  and  _105
REMARK   39  A    between atoms: _110  and  _111
REMARK   40  A    between atoms: _113  and  _115
REMARK   41  A    between atoms: _115  and  _116
REMARK   42  A    between atoms: _115  and  _118
REMARK   43  A    between atoms: _118  and  _119
REMARK   44  A    between atoms: _124  and  _125
REMARK   45  A    between atoms: _127  and  _129
REMARK   46  A    between atoms: _129  and  _130
REMARK   47  A    between atoms: _129  and  _132
REMARK   48  A    between atoms: _132  and  _133
REMARK   49  A    between atoms: _135  and  _137
REMARK   50  A    between atoms: _137  and  _138
REMARK   51  A    between atoms: _137  and  _140
REMARK   52  A    between atoms: _140  and  _141
REMARK   53  A    between atoms: _146  and  _148
REMARK   54  A    between atoms: _148  and  _149
REMARK   55  A    between atoms: _148  and  _151
REMARK   56  A    between atoms: _151  and  _152
REMARK   57  A    between atoms: _155  and  _157
REMARK   58  A    between atoms: _157  and  _158
REMARK   59  A    between atoms: _157  and  _160
REMARK   60  A    between atoms: _160  and  _161
REMARK   61  A    between atoms: _164  and  _166
REMARK   62  A    between atoms: _166  and  _167
REMARK   63  A    between atoms: _166  and  _169
REMARK   64  A    between atoms: _169  and  _170
REMARK   65  A    between atoms: _175  and  _177
REMARK   66  A    between atoms: _177  and  _178
REMARK   67  A    between atoms: _177  and  _180
REMARK   68  A    between atoms: _180  and  _181
REMARK   69  A    between atoms: _191  and  _193
REMARK   70  A    between atoms: _193  and  _194
REMARK   71  A    between atoms: _193  and  _196
REMARK   72  A    between atoms: _196  and  _197
REMARK   73  A    between atoms: _197  and  _198
REMARK   74  A    between atoms: _201  and  _203
REMARK   75  A    between atoms: _203  and  _204
REMARK   76  A    between atoms: _203  and  _206
REMARK   77  A    between atoms: _206  and  _207
REMARK   78  A    between atoms: _212  and  _213
REMARK   79  A    between atoms: _215  and  _217
REMARK   80  A    between atoms: _217  and  _218
REMARK   81  A    between atoms: _217  and  _220
REMARK   82  A    between atoms: _220  and  _221
REMARK   83  A    between atoms: _224  and  _226
REMARK   84  A    between atoms: _226  and  _227
REMARK   85  A    between atoms: _230  and  _232
REMARK   86  A    between atoms: _232  and  _233
REMARK   87  A    between atoms: _235  and  _237
REMARK   88  A    between atoms: _237  and  _238
REMARK   89  A    between atoms: _241  and  _243
REMARK   90  A    between atoms: _243  and  _244
REMARK   91  A    between atoms: _246  and  _248
REMARK   92  A    between atoms: _248  and  _249
REMARK   93  A    between atoms: _251  and  _253
REMARK   94  A    between atoms: _253  and  _254
REMARK   95  A    between atoms: _253  and  _256
REMARK   96  A    between atoms: _256  and  _257
REMARK   97  A    between atoms: _263  and  _265
REMARK   98  A    between atoms: _265  and  _266
REMARK   99  A    between atoms: _265  and  _268
REMARK  100  A    between atoms: _268  and  _269
REMARK  101  A    between atoms: _275  and  _277
REMARK  102  A    between atoms: _277  and  _278
REMARK  103  A    between atoms: _277  and  _280
REMARK  104  A    between atoms: _280  and  _281
REMARK  105  A    between atoms: _281  and  _282
REMARK  106  A    between atoms: _282  and  _283
REMARK  107  A    between atoms: _292  and  _294
REMARK  108  A    between atoms: _294  and  _295
REMARK  109  A    between atoms: _294  and  _297
REMARK  110  A    between atoms: _297  and  _298
REMARK  111  A    between atoms: _303  and  _305
REMARK  112  A    between atoms: _305  and  _306
REMARK  113  A    between atoms: _305  and  _308
REMARK  114  A    between atoms: _308  and  _309
REMARK  115  A    between atoms: _312  and  _314
REMARK  116  A    between atoms: _314  and  _315
REMARK  117  A    between atoms: _314  and  _317
REMARK  118  A    between atoms: _317  and  _318
REMARK  119  A    between atoms: _318  and  _319
REMARK  120  A    between atoms: _321  and  _323
REMARK  121  A    between atoms: _323  and  _324
REMARK  122  A    between atoms: _323  and  _326
REMARK  123  A    between atoms: _326  and  _327
REMARK  124  A    between atoms: _330  and  _332
REMARK  125  A    between atoms: _332  and  _333
REMARK  126  A    between atoms: _332  and  _335
REMARK  127  A    between atoms: _335  and  _336
REMARK  128  A    between atoms: _341  and  _342
REMARK  129  A    between atoms: _344  and  _346
REMARK  130  A    between atoms: _346  and  _347
REMARK  131  A    between atoms: _346  and  _349
REMARK  132  A    between atoms: _349  and  _350
REMARK  133  A    between atoms: _353  and  _355
REMARK  134  A    between atoms: _355  and  _356
REMARK  135  A    between atoms: _355  and  _358
REMARK  136  A    between atoms: _358  and  _359
REMARK  137  A    between atoms: _362  and  _364
REMARK  138  A    between atoms: _364  and  _365
REMARK  139  A    between atoms: _368  and  _370
REMARK  140  A    between atoms: _370  and  _371
REMARK  141  A    between atoms: _373  and  _375
REMARK  142  A    between atoms: _375  and  _376
REMARK  143  A    between atoms: _375  and  _378
REMARK  144  A    between atoms: _378  and  _379
REMARK  145  A    between atoms: _389  and  _391
REMARK  146  A    between atoms: _391  and  _392
REMARK  147  A    between atoms: _391  and  _394
REMARK  148  A    between atoms: _394  and  _395
REMARK  149  A    between atoms: _395  and  _396
REMARK  150  A    between atoms: _399  and  _401
REMARK  151  A    between atoms: _401  and  _402
REMARK  152  A    between atoms: _401  and  _404
REMARK  153  A    between atoms: _404  and  _405
REMARK  154  A    between atoms: _405  and  _406
REMARK  155  A    between atoms: _411  and  _413
REMARK  156  A    between atoms: _413  and  _414
REMARK  157  A    between atoms: _413  and  _416
REMARK  158  A    between atoms: _420  and  _421
REMARK  159  A    between atoms: _426  and  _428
REMARK  160  A    between atoms: _428  and  _429
REMARK  161  A    between atoms: _428  and  _431
REMARK  162  A    between atoms: _431  and  _432
REMARK  163  A    between atoms: _438  and  _440
REMARK  164  A    between atoms: _440  and  _441
REMARK  165  A    between atoms: _440  and  _443
REMARK  166  A    between atoms: _443  and  _444
REMARK  167  A    between atoms: _449  and  _450
REMARK  168  A    between atoms: _452  and  _454
REMARK  169  A    between atoms: _454  and  _455
REMARK  170  A    between atoms: _457  and  _459
REMARK  171  A    between atoms: _459  and  _460
REMARK  172  A    between atoms: _459  and  _462
REMARK  173  A    between atoms: _462  and  _463
REMARK  174  A    between atoms: _463  and  _464
REMARK  175  A    between atoms: _464  and  _465
REMARK  176  A    between atoms: _474  and  _476
REMARK  177  A    between atoms: _476  and  _477
REMARK  178  A    between atoms: _476  and  _479
REMARK  179  A    between atoms: _479  and  _480
REMARK  180  A    between atoms: _483  and  _485
REMARK  181  A    between atoms: _485  and  _486
REMARK  182  A    between atoms: _485  and  _488
REMARK  183  A    between atoms: _488  and  _489
REMARK  184  A    between atoms: _492  and  _494
REMARK  185  A    between atoms: _494  and  _495
REMARK  186  A    between atoms: _494  and  _497
REMARK  187  A    between atoms: _497  and  _498
REMARK  188  A    between atoms: _501  and  _503
REMARK  189  A    between atoms: _503  and  _504
REMARK  190  A    between atoms: _503  and  _506
REMARK  191  A    between atoms: _506  and  _507
REMARK  192  A    between atoms: _507  and  _508
REMARK  193  A    between atoms: _508  and  _509
REMARK  194  A    between atoms: _518  and  _520
REMARK  195  A    between atoms: _520  and  _521
REMARK  196  A    between atoms: _520  and  _523
REMARK  197  A    between atoms: _523  and  _524
REMARK  198  A    between atoms: _527  and  _529
REMARK  199  A    between atoms: _529  and  _530
REMARK  200  A    between atoms: _533  and  _535
REMARK  201  A    between atoms: _535  and  _536
REMARK  202  A    between atoms: _535  and  _538
REMARK  203  A    between atoms: _538  and  _539
REMARK  204  A    between atoms: _541  and  _543
REMARK  205  A    between atoms: _543  and  _544
REMARK  206  A    between atoms: _543  and  _546
REMARK  207  A    between atoms: _546  and  _547
REMARK  208  A    between atoms: _547  and  _548
REMARK  209  A    between atoms: _550  and  _552
REMARK  210  A    between atoms: _552  and  _553
REMARK  211  A    between atoms: _552  and  _555
REMARK  212  A    between atoms: _555  and  _556
REMARK  213  A    between atoms: _562  and  _564
REMARK  214  A    between atoms: _564  and  _565
REMARK  215  A    between atoms: _564  and  _567
REMARK  216  A    between atoms: _567  and  _568
REMARK  217  A    between atoms: _578  and  _580
REMARK  218  A    between atoms: _580  and  _581
REMARK  219  A    between atoms: _580  and  _583
REMARK  220  A    between atoms: _583  and  _584
REMARK  221  A    between atoms: _589  and  _591
REMARK  222  A    between atoms: _591  and  _592
REMARK  223  A    between atoms: _591  and  _594
REMARK  224  A    between atoms: _594  and  _595
REMARK  225  A    between atoms: _595  and  _596
REMARK                            x       y       z     vdW  Elec       q    Type
REMARK                         _______ _______ _______ _____ _____    ______ ____
ROOT
ATOM      1  CA  ILE A   2      22.484  32.463 104.970  0.00  0.00    +0.148 C 
ENDROOT
BRANCH   1   3
ATOM      2  C   ARG A   1      23.159  31.076 103.030  0.00  0.00    +0.238 C 
ATOM      3  N   ILE A   2      22.434  31.255 104.137  0.00  0.00    -0.297 N 
ATOM      4  H   ILE A   2      21.793  30.490 104.428  0.00  0.00    +0.150 HD
ATOM      5  O   ARG A   1      23.972  31.903 102.603  0.00  0.00    -0.274 OA
BRANCH   2   6
ATOM      6  CA  ARG A   1      22.950  29.739 102.286  0.00  0.00    +0.145 C 
BRANCH   6   7
ATOM      7  N   ARG A   1      22.076  28.773 102.951  0.00  0.00    -0.238 NA
ATOM      8  H   ARG A   1      21.046  28.838 102.825  0.00  0.00    +0.142 HD
ENDBRANCH   6   7
BRANCH   6   9
ATOM      9  CB  ARG A   1      22.410  30.007 100.887  0.00  0.00    +0.030 C 
BRANCH   9  10
ATOM     10  CG  ARG A   1      22.213  28.742 100.049  0.00  0.00    +0.045 C 
BRANCH  10  11
ATOM     11  CD  ARG A   1      21.449  29.068  98.767  0.00  0.00    +0.174 C 
BRANCH  11  12
ATOM     12  NE  ARG A   1      20.119  29.613  99.056  0.00  0.00    -0.265 N 
ATOM     13  HE  ARG A   1      19.866  29.769 100.053  0.00  0.00    +0.259 HD
ATOM     14  CZ  ARG A   1      19.213  29.922  98.132  0.00  0.00    +0.342 C 
ATOM     15  NH2 ARG A   1      18.036  30.428  98.494  0.00  0.00    -0.292 N 
ATOM     16 HH21 ARG A   1      17.824  30.582  99.500  0.00  0.00    +0.255 HD
ATOM     17 HH22 ARG A   1      17.329  30.669  97.770  0.00  0.00    +0.255 HD
ATOM     18  NH1 ARG A   1      19.478  29.739  96.847  0.00  0.00    -0.292 N 
ATOM     19 HH11 ARG A   1      20.398  29.352  96.556  0.00  0.00    +0.255 HD
ATOM     20 HH12 ARG A   1      18.766  29.982  96.129  0.00  0.00    +0.255 HD
ENDBRANCH  11  12
ENDBRANCH  10  11
ENDBRANCH   9  10
ENDBRANCH   6   9
ENDBRANCH   2   6
ENDBRANCH   1   3
BRANCH   1  21
ATOM     21  C   ILE A   2      22.482  32.101 106.450  0.00  0.00    +0.241 C 
ATOM     22  N   ALA A   3      23.244  32.838 107.253  0.00  0.00    -0.297 N 
ATOM     23  H   ALA A   3      23.820  33.599 106.840  0.00  0.00    +0.150 HD
ATOM     24  O   ILE A   2      21.794  31.179 106.856  0.00  0.00    -0.273 OA
BRANCH  22  25
ATOM     25  CA  ALA A   3      23.299  32.613 108.699  0.00  0.00    +0.149 C 
ATOM     26  CB  ALA A   3      24.393  31.610 109.048  0.00  0.00    +0.031 C 
BRANCH  25  27
ATOM     27  C   ALA A   3      23.602  33.937 109.384  0.00  0.00    +0.241 C 
ATOM     28  N   SER A   4      22.946  34.171 110.514  0.00  0.00    -0.296 N 
ATOM     29  H   SER A   4      22.265  33.463 110.856  0.00  0.00    +0.150 HD
ATOM     30  O   ALA A   3      24.441  34.708 108.909  0.00  0.00    -0.273 OA
BRANCH  28  31
ATOM     31  CA  SER A   4      23.150  35.393 111.296  0.00  0.00    +0.166 C 
BRANCH  31  32
ATOM     32  CB  SER A   4      24.509  35.298 111.966  0.00  0.00    +0.229 C 
ATOM     33  OG  SER A   4      25.028  34.190 112.199  0.00  0.00    -0.286 OA
ENDBRANCH  31  32
BRANCH  31  34
ATOM     34  C   SER A   4      22.077  35.523 112.380  0.00  0.00    +0.165 C 
BRANCH  34  35
ATOM     35  O   SER A   4      22.192  34.463 113.331  0.00  0.00    -0.380 OA
ATOM     36  H   SER A   4      22.079  33.594 112.870  0.00  0.00    +0.211 HD
ENDBRANCH  34  35
ENDBRANCH  31  34
ENDBRANCH  28  31
ENDBRANCH  25  27
ENDBRANCH  22  25
ENDBRANCH   1  21
BRANCH   1  37
ATOM     37  CB  ILE A   2      21.252  33.348 104.717  0.00  0.00    +0.027 C 
ATOM     38  CG2 ILE A   2      21.099  34.408 105.840  0.00  0.00    +0.002 C 
BRANCH  37  39
ATOM     39  CG1 ILE A   2      21.377  34.014 103.354  0.00  0.00    +0.002 C 
ATOM     40  CD1 ILE A   2      22.443  35.055 103.303  0.00  0.00    +0.000 C 
ENDBRANCH  37  39
ENDBRANCH   1  37
TORSDOF 16
REMARK  Name = ../refined-set-2016/1ur9/1ur9_pocket.pdb
REMARK  225 active torsions:
REMARK  status: ('A' for Active; 'I' for Inactive)
REMARK    1  A    between atoms: _1  and  _3
REMARK    2  A    between atoms: _3  and  _4
REMARK    3  A    between atoms: _3  and  _6
REMARK    4  A    between atoms: _6  and  _7
REMARK    5  A    between atoms: _12  and  _13
REMARK    6  A    between atoms: _15  and  _17
REMARK    7  A    between atoms: _17  and  _18
REMARK    8  A    between atoms: _17  and  _20
REMARK    9  A    between atoms: _20  and  _21
REMARK   10  A    between atoms: _28  and  _29
REMARK   11  A    between atoms: _34  and  _36
REMARK   12  A    between atoms: _36  and  _37
REMARK   13  A    between atoms: _36  and  _39
REMARK   14  A    between atoms: _39  and  _40
REMARK   15  A    between atoms: _45  and  _47
REMARK   16  A    between atoms: _47  and  _48
REMARK   17  A    between atoms: _47  and  _50
REMARK   18  A    between atoms: _50  and  _51
REMARK   19  A    between atoms: _53  and  _55
REMARK   20  A    between atoms: _55  and  _56
REMARK   21  A    between atoms: _55  and  _58
REMARK   22  A    between atoms: _58  and  _59
REMARK   23  A    between atoms: _65  and  _67
REMARK   24  A    between atoms: _67  and  _68
REMARK   25  A    between atoms: _67  and  _70
REMARK   26  A    between atoms: _70  and  _71
REMARK   27  A    between atoms: _73  and  _75
REMARK   28  A    between atoms: _75  and  _76
REMARK   29  A    between atoms: _78  and  _80
REMARK   30  A    between atoms: _80  and  _81
REMARK   31  A    between atoms: _83  and  _85
REMARK   32  A    between atoms: _85  and  _86
REMARK   33  A    between atoms: _85  and  _88
REMARK   34  A    between atoms: _88  and  _89
REMARK   35  A    between atoms: _99  and  _101
REMARK   36  A    between atoms: _101  and  _102
REMARK   37  A    between atoms: _101  and  _104
REMARK   38  A    between atoms: _104  and  _105
REMARK   39  A    between atoms: _110  and  _111
REMARK   40  A    between atoms: _113  and  _115
REMARK   41  A    between atoms: _115  and  _116
REMARK   42  A    between atoms: _115  and  _118
REMARK   43  A    between atoms: _118  and  _119
REMARK   44  A    between atoms: _124  and  _125
REMARK   45  A    between atoms: _127  and  _129
REMARK   46  A    between atoms: _129  and  _130
REMARK   47  A    between atoms: _129  and  _132
REMARK   48  A    between atoms: _132  and  _133
REMARK   49  A    between atoms: _135  and  _137
REMARK   50  A    between atoms: _137  and  _138
REMARK   51  A    between atoms: _137  and  _140
REMARK   52  A    between atoms: _140  and  _141
REMARK   53  A    between atoms: _146  and  _148
REMARK   54  A    between atoms: _148  and  _149
REMARK   55  A    between atoms: _148  and  _151
REMARK   56  A    between atoms: _151  and  _152
REMARK   57  A    between atoms: _155  and  _157
REMARK   58  A    between atoms: _157  and  _158
REMARK   59  A    between atoms: _157  and  _160
REMARK   60  A    between atoms: _160  and  _161
REMARK   61  A    between atoms: _164  and  _166
REMARK   62  A    between atoms: _166  and  _167
REMARK   63  A    between atoms: _166  and  _169
REMARK   64  A    between atoms: _169  and  _170
REMARK   65  A    between atoms: _175  and  _177
REMARK   66  A    between atoms: _177  and  _178
REMARK   67  A    between atoms: _177  and  _180
REMARK   68  A    between atoms: _180  and  _181
REMARK   69  A    between atoms: _191  and  _193
REMARK   70  A    between atoms: _193  and  _194
REMARK   71  A    between atoms: _193  and  _196
REMARK   72  A    between atoms: _196  and  _197
REMARK   73  A    between atoms: _197  and  _198
REMARK   74  A    between atoms: _201  and  _203
REMARK   75  A    between atoms: _203  and  _204
REMARK   76  A    between atoms: _203  and  _206
REMARK   77  A    between atoms: _206  and  _207
REMARK   78  A    between atoms: _212  and  _213
REMARK   79  A    between atoms: _215  and  _217
REMARK   80  A    between atoms: _217  and  _218
REMARK   81  A    between atoms: _217  and  _220
REMARK   82  A    between atoms: _220  and  _221
REMARK   83  A    between atoms: _224  and  _226
REMARK   84  A    between atoms: _226  and  _227
REMARK   85  A    between atoms: _230  and  _232
REMARK   86  A    between atoms: _232  and  _233
REMARK   87  A    between atoms: _235  and  _237
REMARK   88  A    between atoms: _237  and  _238
REMARK   89  A    between atoms: _241  and  _243
REMARK   90  A    between atoms: _243  and  _244
REMARK   91  A    between atoms: _246  and  _248
REMARK   92  A    between atoms: _248  and  _249
REMARK   93  A    between atoms: _251  and  _253
REMARK   94  A    between atoms: _253  and  _254
REMARK   95  A    between atoms: _253  and  _256
REMARK   96  A    between atoms: _256  and  _257
REMARK   97  A    between atoms: _263  and  _265
REMARK   98  A    between atoms: _265  and  _266
REMARK   99  A    between atoms: _265  and  _268
REMARK  100  A    between atoms: _268  and  _269
REMARK  101  A    between atoms: _275  and  _277
REMARK  102  A    between atoms: _277  and  _278
REMARK  103  A    between atoms: _277  and  _280
REMARK  104  A    between atoms: _280  and  _281
REMARK  105  A    between atoms: _281  and  _282
REMARK  106  A    between atoms: _282  and  _283
REMARK  107  A    between atoms: _292  and  _294
REMARK  108  A    between atoms: _294  and  _295
REMARK  109  A    between atoms: _294  and  _297
REMARK  110  A    between atoms: _297  and  _298
REMARK  111  A    between atoms: _303  and  _305
REMARK  112  A    between atoms: _305  and  _306
REMARK  113  A    between atoms: _305  and  _308
REMARK  114  A    between atoms: _308  and  _309
REMARK  115  A    between atoms: _312  and  _314
REMARK  116  A    between atoms: _314  and  _315
REMARK  117  A    between atoms: _314  and  _317
REMARK  118  A    between atoms: _317  and  _318
REMARK  119  A    between atoms: _318  and  _319
REMARK  120  A    between atoms: _321  and  _323
REMARK  121  A    between atoms: _323  and  _324
REMARK  122  A    between atoms: _323  and  _326
REMARK  123  A    between atoms: _326  and  _327
REMARK  124  A    between atoms: _330  and  _332
REMARK  125  A    between atoms: _332  and  _333
REMARK  126  A    between atoms: _332  and  _335
REMARK  127  A    between atoms: _335  and  _336
REMARK  128  A    between atoms: _341  and  _342
REMARK  129  A    between atoms: _344  and  _346
REMARK  130  A    between atoms: _346  and  _347
REMARK  131  A    between atoms: _346  and  _349
REMARK  132  A    between atoms: _349  and  _350
REMARK  133  A    between atoms: _353  and  _355
REMARK  134  A    between atoms: _355  and  _356
REMARK  135  A    between atoms: _355  and  _358
REMARK  136  A    between atoms: _358  and  _359
REMARK  137  A    between atoms: _362  and  _364
REMARK  138  A    between atoms: _364  and  _365
REMARK  139  A    between atoms: _368  and  _370
REMARK  140  A    between atoms: _370  and  _371
REMARK  141  A    between atoms: _373  and  _375
REMARK  142  A    between atoms: _375  and  _376
REMARK  143  A    between atoms: _375  and  _378
REMARK  144  A    between atoms: _378  and  _379
REMARK  145  A    between atoms: _389  and  _391
REMARK  146  A    between atoms: _391  and  _392
REMARK  147  A    between atoms: _391  and  _394
REMARK  148  A    between atoms: _394  and  _395
REMARK  149  A    between atoms: _395  and  _396
REMARK  150  A    between atoms: _399  and  _401
REMARK  151  A    between atoms: _401  and  _402
REMARK  152  A    between atoms: _401  and  _404
REMARK  153  A    between atoms: _404  and  _405
REMARK  154  A    between atoms: _405  and  _406
REMARK  155  A    between atoms: _411  and  _413
REMARK  156  A    between atoms: _413  and  _414
REMARK  157  A    between atoms: _413  and  _416
REMARK  158  A    between atoms: _420  and  _421
REMARK  159  A    between atoms: _426  and  _428
REMARK  160  A    between atoms: _428  and  _429
REMARK  161  A    between atoms: _428  and  _431
REMARK  162  A    between atoms: _431  and  _432
REMARK  163  A    between atoms: _438  and  _440
REMARK  164  A    between atoms: _440  and  _441
REMARK  165  A    between atoms: _440  and  _443
REMARK  166  A    between atoms: _443  and  _444
REMARK  167  A    between atoms: _449  and  _450
REMARK  168  A    between atoms: _452  and  _454
REMARK  169  A    between atoms: _454  and  _455
REMARK  170  A    between atoms: _457  and  _459
REMARK  171  A    between atoms: _459  and  _460
REMARK  172  A    between atoms: _459  and  _462
REMARK  173  A    between atoms: _462  and  _463
REMARK  174  A    between atoms: _463  and  _464
REMARK  175  A    between atoms: _464  and  _465
REMARK  176  A    between atoms: _474  and  _476
REMARK  177  A    between atoms: _476  and  _477
REMARK  178  A    between atoms: _476  and  _479
REMARK  179  A    between atoms: _479  and  _480
REMARK  180  A    between atoms: _483  and  _485
REMARK  181  A    between atoms: _485  and  _486
REMARK  182  A    between atoms: _485  and  _488
REMARK  183  A    between atoms: _488  and  _489
REMARK  184  A    between atoms: _492  and  _494
REMARK  185  A    between atoms: _494  and  _495
REMARK  186  A    between atoms: _494  and  _497
REMARK  187  A    between atoms: _497  and  _498
REMARK  188  A    between atoms: _501  and  _503
REMARK  189  A    between atoms: _503  and  _504
REMARK  190  A    between atoms: _503  and  _506
REMARK  191  A    between atoms: _506  and  _507
REMARK  192  A    between atoms: _507  and  _508
REMARK  193  A    between atoms: _508  and  _509
REMARK  194  A    between atoms: _518  and  _520
REMARK  195  A    between atoms: _520  and  _521
REMARK  196  A    between atoms: _520  and  _523
REMARK  197  A    between atoms: _523  and  _524
REMARK  198  A    between atoms: _527  and  _529
REMARK  199  A    between atoms: _529  and  _530
REMARK  200  A    between atoms: _533  and  _535
REMARK  201  A    between atoms: _535  and  _536
REMARK  202  A    between atoms: _535  and  _538
REMARK  203  A    between atoms: _538  and  _539
REMARK  204  A    between atoms: _541  and  _543
REMARK  205  A    between atoms: _543  and  _544
REMARK  206  A    between atoms: _543  and  _546
REMARK  207  A    between atoms: _546  and  _547
REMARK  208  A    between atoms: _547  and  _548
REMARK  209  A    between atoms: _550  and  _552
REMARK  210  A    between atoms: _552  and  _553
REMARK  211  A    between atoms: _552  and  _555
REMARK  212  A    between atoms: _555  and  _556
REMARK  213  A    between atoms: _562  and  _564
REMARK  214  A    between atoms: _564  and  _565
REMARK  215  A    between atoms: _564  and  _567
REMARK  216  A    between atoms: _567  and  _568
REMARK  217  A    between atoms: _578  and  _580
REMARK  218  A    between atoms: _580  and  _581
REMARK  219  A    between atoms: _580  and  _583
REMARK  220  A    between atoms: _583  and  _584
REMARK  221  A    between atoms: _589  and  _591
REMARK  222  A    between atoms: _591  and  _592
REMARK  223  A    between atoms: _591  and  _594
REMARK  224  A    between atoms: _594  and  _595
REMARK  225  A    between atoms: _595  and  _596
REMARK                            x       y       z     vdW  Elec       q    Type
REMARK                         _______ _______ _______ _____ _____    ______ ____
ROOT
ATOM      1  CA  TRP A   3      21.351  44.800 107.979  0.00  0.00    +0.153 C 
ENDROOT
BRANCH   1   4
ATOM      2  C   PHE A   2      22.332  46.833 108.898  0.00  0.00    +0.241 C 
ATOM      3  O   PHE A   2      21.257  47.228 109.348  0.00  0.00    -0.273 OA
ATOM      4  N   TRP A   3      22.469  45.717 108.200  0.00  0.00    -0.297 N 
ATOM      5  H   TRP A   3      23.399  45.485 107.797  0.00  0.00    +0.150 HD
BRANCH   2   6
ATOM      6  CA  PHE A   2      23.615  47.617 109.092  0.00  0.00    +0.153 C 
BRANCH   6   8
ATOM      7  C   MET A   1      24.392  49.800 108.633  0.00  0.00    +0.238 C 
ATOM      8  N   PHE A   2      23.447  49.047 109.187  0.00  0.00    -0.297 N 
ATOM      9  H   PHE A   2      22.626  49.468 109.666  0.00  0.00    +0.150 HD
ATOM     10  O   MET A   1      25.396  49.315 108.107  0.00  0.00    -0.274 OA
BRANCH   7  11
ATOM     11  CA  MET A   1      24.203  51.305 108.672  0.00  0.00    +0.146 C 
BRANCH  11  12
ATOM     12  N   MET A   1      25.546  51.850 108.678  0.00  0.00    -0.238 NA
ATOM     13  H   MET A   1      26.254  51.445 108.033  0.00  0.00    +0.142 HD
ENDBRANCH  11  12
BRANCH  11  14
ATOM     14  CB  MET A   1      23.466  51.771 107.416  0.00  0.00    +0.038 C 
BRANCH  14  15
ATOM     15  CG  MET A   1      22.191  50.995 107.060  0.00  0.00    +0.060 C 
BRANCH  15  16
ATOM     16  SD  MET A   1      22.447  49.416 106.179  0.00  0.00    -0.139 S 
ATOM     17  CE  MET A   1      22.487  49.929 104.473  0.00  0.00    +0.069 C 
ENDBRANCH  15  16
ENDBRANCH  14  15
ENDBRANCH  11  14
ENDBRANCH   7  11
ENDBRANCH   6   8
BRANCH   6  18
ATOM     18  CB  PHE A   2      24.417  47.078 110.298  0.00  0.00    +0.055 C 
BRANCH  18  19
ATOM     19  CG  PHE A   2      23.824  47.403 111.652  0.00  0.00    -0.020 A 
ATOM     20  CD2 PHE A   2      24.276  48.508 112.380  0.00  0.00    -0.004 A 
ATOM     21  CE2 PHE A   2      23.766  48.792 113.639  0.00  0.00    -0.000 A 
ATOM     22  CZ  PHE A   2      22.766  47.944 114.199  0.00  0.00    -0.000 A 
ATOM     23  CE1 PHE A   2      22.317  46.859 113.485  0.00  0.00    -0.000 A 
ATOM     24  CD1 PHE A   2      22.843  46.588 112.209  0.00  0.00    -0.004 A 
ENDBRANCH  18  19
ENDBRANCH   6  18
ENDBRANCH   2   6
ENDBRANCH   1   4
BRANCH   1  25
ATOM     25  C   TRP A   3      21.732  43.454 108.607  0.00  0.00    +0.241 C 
ATOM     26  N   HIS A   4      21.053  43.022 109.669  0.00  0.00    -0.298 N 
ATOM     27  H   HIS A   4      21.223  42.050 109.997  0.00  0.00    +0.150 HD
ATOM     28  O   TRP A   3      22.582  42.776 108.072  0.00  0.00    -0.273 OA
BRANCH  26  29
ATOM     29  CA  HIS A   4      20.083  43.835 110.399  0.00  0.00    +0.143 C 
BRANCH  29  30
ATOM     30  C   HIS A   4      20.252  43.497 111.888  0.00  0.00    +0.227 C 
ATOM     31  O   HIS A   4      20.880  42.492 112.231  0.00  0.00    -0.286 OA
ENDBRANCH  29  30
BRANCH  29  32
ATOM     32  CB  HIS A   4      18.641  43.619 109.879  0.00  0.00    +0.075 C 
BRANCH  32  33
ATOM     33  CG  HIS A   4      18.015  42.319 110.279  0.00  0.00    +0.082 A 
ATOM     34  ND1 HIS A   4      17.317  42.159 111.461  0.00  0.00    -0.227 NA
ATOM     35  CE1 HIS A   4      16.839  40.927 111.520  0.00  0.00    +0.199 A 
ATOM     36  NE2 HIS A   4      17.200  40.282 110.419  0.00  0.00    -0.221 NA
ATOM     37  CD2 HIS A   4      17.940  41.131 109.627  0.00  0.00    +0.115 A 
ENDBRANCH  32  33
ENDBRANCH  29  32
ENDBRANCH  26  29
ENDBRANCH   1  25
BRANCH   1  38
ATOM     38  CB  TRP A   3      21.108  44.560 106.486  0.00  0.00    +0.057 C 
BRANCH  38  39
ATOM     39  CG  TRP A   3      19.961  43.629 106.292  0.00  0.00    -0.002 A 
ATOM     40  CD2 TRP A   3      18.575  43.991 106.284  0.00  0.00    +0.013 A 
ATOM     41  CE3 TRP A   3      17.893  45.214 106.303  0.00  0.00    +0.001 A 
ATOM     42  CZ3 TRP A   3      16.489  45.197 106.290  0.00  0.00    +0.000 A 
ATOM     43  CH2 TRP A   3      15.783  43.985 106.254  0.00  0.00    +0.001 A 
ATOM     44  CZ2 TRP A   3      16.432  42.773 106.232  0.00  0.00    +0.017 A 
ATOM     45  CE2 TRP A   3      17.829  42.788 106.249  0.00  0.00    +0.056 A 
ATOM     46  NE1 TRP A   3      18.726  41.747 106.244  0.00  0.00    -0.352 N 
ATOM     47  HE1 TRP A   3      18.479  40.737 106.231  0.00  0.00    +0.166 HD
ATOM     48  CD1 TRP A   3      20.000  42.257 106.259  0.00  0.00    +0.068 A 
ENDBRANCH  38  39
ENDBRANCH   1  38
TORSDOF 17
REMARK  Name = ../refined-set-2016/1ur9/1ur9_pocket.pdb
REMARK  225 active torsions:
REMARK  status: ('A' for Active; 'I' for Inactive)
REMARK    1  A    between atoms: _1  and  _3
REMARK    2  A    between atoms: _3  and  _4
REMARK    3  A    between atoms: _3  and  _6
REMARK    4  A    between atoms: _6  and  _7
REMARK    5  A    between atoms: _12  and  _13
REMARK    6  A    between atoms: _15  and  _17
REMARK    7  A    between atoms: _17  and  _18
REMARK    8  A    between atoms: _17  and  _20
REMARK    9  A    between atoms: _20  and  _21
REMARK   10  A    between atoms: _28  and  _29
REMARK   11  A    between atoms: _34  and  _36
REMARK   12  A    between atoms: _36  and  _37
REMARK   13  A    between atoms: _36  and  _39
REMARK   14  A    between atoms: _39  and  _40
REMARK   15  A    between atoms: _45  and  _47
REMARK   16  A    between atoms: _47  and  _48
REMARK   17  A    between atoms: _47  and  _50
REMARK   18  A    between atoms: _50  and  _51
REMARK   19  A    between atoms: _53  and  _55
REMARK   20  A    between atoms: _55  and  _56
REMARK   21  A    between atoms: _55  and  _58
REMARK   22  A    between atoms: _58  and  _59
REMARK   23  A    between atoms: _65  and  _67
REMARK   24  A    between atoms: _67  and  _68
REMARK   25  A    between atoms: _67  and  _70
REMARK   26  A    between atoms: _70  and  _71
REMARK   27  A    between atoms: _73  and  _75
REMARK   28  A    between atoms: _75  and  _76
REMARK   29  A    between atoms: _78  and  _80
REMARK   30  A    between atoms: _80  and  _81
REMARK   31  A    between atoms: _83  and  _85
REMARK   32  A    between atoms: _85  and  _86
REMARK   33  A    between atoms: _85  and  _88
REMARK   34  A    between atoms: _88  and  _89
REMARK   35  A    between atoms: _99  and  _101
REMARK   36  A    between atoms: _101  and  _102
REMARK   37  A    between atoms: _101  and  _104
REMARK   38  A    between atoms: _104  and  _105
REMARK   39  A    between atoms: _110  and  _111
REMARK   40  A    between atoms: _113  and  _115
REMARK   41  A    between atoms: _115  and  _116
REMARK   42  A    between atoms: _115  and  _118
REMARK   43  A    between atoms: _118  and  _119
REMARK   44  A    between atoms: _124  and  _125
REMARK   45  A    between atoms: _127  and  _129
REMARK   46  A    between atoms: _129  and  _130
REMARK   47  A    between atoms: _129  and  _132
REMARK   48  A    between atoms: _132  and  _133
REMARK   49  A    between atoms: _135  and  _137
REMARK   50  A    between atoms: _137  and  _138
REMARK   51  A    between atoms: _137  and  _140
REMARK   52  A    between atoms: _140  and  _141
REMARK   53  A    between atoms: _146  and  _148
REMARK   54  A    between atoms: _148  and  _149
REMARK   55  A    between atoms: _148  and  _151
REMARK   56  A    between atoms: _151  and  _152
REMARK   57  A    between atoms: _155  and  _157
REMARK   58  A    between atoms: _157  and  _158
REMARK   59  A    between atoms: _157  and  _160
REMARK   60  A    between atoms: _160  and  _161
REMARK   61  A    between atoms: _164  and  _166
REMARK   62  A    between atoms: _166  and  _167
REMARK   63  A    between atoms: _166  and  _169
REMARK   64  A    between atoms: _169  and  _170
REMARK   65  A    between atoms: _175  and  _177
REMARK   66  A    between atoms: _177  and  _178
REMARK   67  A    between atoms: _177  and  _180
REMARK   68  A    between atoms: _180  and  _181
REMARK   69  A    between atoms: _191  and  _193
REMARK   70  A    between atoms: _193  and  _194
REMARK   71  A    between atoms: _193  and  _196
REMARK   72  A    between atoms: _196  and  _197
REMARK   73  A    between atoms: _197  and  _198
REMARK   74  A    between atoms: _201  and  _203
REMARK   75  A    between atoms: _203  and  _204
REMARK   76  A    between atoms: _203  and  _206
REMARK   77  A    between atoms: _206  and  _207
REMARK   78  A    between atoms: _212  and  _213
REMARK   79  A    between atoms: _215  and  _217
REMARK   80  A    between atoms: _217  and  _218
REMARK   81  A    between atoms: _217  and  _220
REMARK   82  A    between atoms: _220  and  _221
REMARK   83  A    between atoms: _224  and  _226
REMARK   84  A    between atoms: _226  and  _227
REMARK   85  A    between atoms: _230  and  _232
REMARK   86  A    between atoms: _232  and  _233
REMARK   87  A    between atoms: _235  and  _237
REMARK   88  A    between atoms: _237  and  _238
REMARK   89  A    between atoms: _241  and  _243
REMARK   90  A    between atoms: _243  and  _244
REMARK   91  A    between atoms: _246  and  _248
REMARK   92  A    between atoms: _248  and  _249
REMARK   93  A    between atoms: _251  and  _253
REMARK   94  A    between atoms: _253  and  _254
REMARK   95  A    between atoms: _253  and  _256
REMARK   96  A    between atoms: _256  and  _257
REMARK   97  A    between atoms: _263  and  _265
REMARK   98  A    between atoms: _265  and  _266
REMARK   99  A    between atoms: _265  and  _268
REMARK  100  A    between atoms: _268  and  _269
REMARK  101  A    between atoms: _275  and  _277
REMARK  102  A    between atoms: _277  and  _278
REMARK  103  A    between atoms: _277  and  _280
REMARK  104  A    between atoms: _280  and  _281
REMARK  105  A    between atoms: _281  and  _282
REMARK  106  A    between atoms: _282  and  _283
REMARK  107  A    between atoms: _292  and  _294
REMARK  108  A    between atoms: _294  and  _295
REMARK  109  A    between atoms: _294  and  _297
REMARK  110  A    between atoms: _297  and  _298
REMARK  111  A    between atoms: _303  and  _305
REMARK  112  A    between atoms: _305  and  _306
REMARK  113  A    between atoms: _305  and  _308
REMARK  114  A    between atoms: _308  and  _309
REMARK  115  A    between atoms: _312  and  _314
REMARK  116  A    between atoms: _314  and  _315
REMARK  117  A    between atoms: _314  and  _317
REMARK  118  A    between atoms: _317  and  _318
REMARK  119  A    between atoms: _318  and  _319
REMARK  120  A    between atoms: _321  and  _323
REMARK  121  A    between atoms: _323  and  _324
REMARK  122  A    between atoms: _323  and  _326
REMARK  123  A    between atoms: _326  and  _327
REMARK  124  A    between atoms: _330  and  _332
REMARK  125  A    between atoms: _332  and  _333
REMARK  126  A    between atoms: _332  and  _335
REMARK  127  A    between atoms: _335  and  _336
REMARK  128  A    between atoms: _341  and  _342
REMARK  129  A    between atoms: _344  and  _346
REMARK  130  A    between atoms: _346  and  _347
REMARK  131  A    between atoms: _346  and  _349
REMARK  132  A    between atoms: _349  and  _350
REMARK  133  A    between atoms: _353  and  _355
REMARK  134  A    between atoms: _355  and  _356
REMARK  135  A    between atoms: _355  and  _358
REMARK  136  A    between atoms: _358  and  _359
REMARK  137  A    between atoms: _362  and  _364
REMARK  138  A    between atoms: _364  and  _365
REMARK  139  A    between atoms: _368  and  _370
REMARK  140  A    between atoms: _370  and  _371
REMARK  141  A    between atoms: _373  and  _375
REMARK  142  A    between atoms: _375  and  _376
REMARK  143  A    between atoms: _375  and  _378
REMARK  144  A    between atoms: _378  and  _379
REMARK  145  A    between atoms: _389  and  _391
REMARK  146  A    between atoms: _391  and  _392
REMARK  147  A    between atoms: _391  and  _394
REMARK  148  A    between atoms: _394  and  _395
REMARK  149  A    between atoms: _395  and  _396
REMARK  150  A    between atoms: _399  and  _401
REMARK  151  A    between atoms: _401  and  _402
REMARK  152  A    between atoms: _401  and  _404
REMARK  153  A    between atoms: _404  and  _405
REMARK  154  A    between atoms: _405  and  _406
REMARK  155  A    between atoms: _411  and  _413
REMARK  156  A    between atoms: _413  and  _414
REMARK  157  A    between atoms: _413  and  _416
REMARK  158  A    between atoms: _420  and  _421
REMARK  159  A    between atoms: _426  and  _428
REMARK  160  A    between atoms: _428  and  _429
REMARK  161  A    between atoms: _428  and  _431
REMARK  162  A    between atoms: _431  and  _432
REMARK  163  A    between atoms: _438  and  _440
REMARK  164  A    between atoms: _440  and  _441
REMARK  165  A    between atoms: _440  and  _443
REMARK  166  A    between atoms: _443  and  _444
REMARK  167  A    between atoms: _449  and  _450
REMARK  168  A    between atoms: _452  and  _454
REMARK  169  A    between atoms: _454  and  _455
REMARK  170  A    between atoms: _457  and  _459
REMARK  171  A    between atoms: _459  and  _460
REMARK  172  A    between atoms: _459  and  _462
REMARK  173  A    between atoms: _462  and  _463
REMARK  174  A    between atoms: _463  and  _464
REMARK  175  A    between atoms: _464  and  _465
REMARK  176  A    between atoms: _474  and  _476
REMARK  177  A    between atoms: _476  and  _477
REMARK  178  A    between atoms: _476  and  _479
REMARK  179  A    between atoms: _479  and  _480
REMARK  180  A    between atoms: _483  and  _485
REMARK  181  A    between atoms: _485  and  _486
REMARK  182  A    between atoms: _485  and  _488
REMARK  183  A    between atoms: _488  and  _489
REMARK  184  A    between atoms: _492  and  _494
REMARK  185  A    between atoms: _494  and  _495
REMARK  186  A    between atoms: _494  and  _497
REMARK  187  A    between atoms: _497  and  _498
REMARK  188  A    between atoms: _501  and  _503
REMARK  189  A    between atoms: _503  and  _504
REMARK  190  A    between atoms: _503  and  _506
REMARK  191  A    between atoms: _506  and  _507
REMARK  192  A    between atoms: _507  and  _508
REMARK  193  A    between atoms: _508  and  _509
REMARK  194  A    between atoms: _518  and  _520
REMARK  195  A    between atoms: _520  and  _521
REMARK  196  A    between atoms: _520  and  _523
REMARK  197  A    between atoms: _523  and  _524
REMARK  198  A    between atoms: _527  and  _529
REMARK  199  A    between atoms: _529  and  _530
REMARK  200  A    between atoms: _533  and  _535
REMARK  201  A    between atoms: _535  and  _536
REMARK  202  A    between atoms: _535  and  _538
REMARK  203  A    between atoms: _538  and  _539
REMARK  204  A    between atoms: _541  and  _543
REMARK  205  A    between atoms: _543  and  _544
REMARK  206  A    between atoms: _543  and  _546
REMARK  207  A    between atoms: _546  and  _547
REMARK  208  A    between atoms: _547  and  _548
REMARK  209  A    between atoms: _550  and  _552
REMARK  210  A    between atoms: _552  and  _553
REMARK  211  A    between atoms: _552  and  _555
REMARK  212  A    between atoms: _555  and  _556
REMARK  213  A    between atoms: _562  and  _564
REMARK  214  A    between atoms: _564  and  _565
REMARK  215  A    between atoms: _564  and  _567
REMARK  216  A    between atoms: _567  and  _568
REMARK  217  A    between atoms: _578  and  _580
REMARK  218  A    between atoms: _580  and  _581
REMARK  219  A    between atoms: _580  and  _583
REMARK  220  A    between atoms: _583  and  _584
REMARK  221  A    between atoms: _589  and  _591
REMARK  222  A    between atoms: _591  and  _592
REMARK  223  A    between atoms: _591  and  _594
REMARK  224  A    between atoms: _594  and  _595
REMARK  225  A    between atoms: _595  and  _596
REMARK                            x       y       z     vdW  Elec       q    Type
REMARK                         _______ _______ _______ _____ _____    ______ ____
ROOT
ATOM      1  CB  GLN A   1      21.538  39.128 112.082  0.00  0.00    +0.035 C 
ENDROOT
BRANCH   1   2
ATOM      2  CA  GLN A   1      21.131  39.077 113.566  0.00  0.00    +0.134 C 
BRANCH   2   3
ATOM      3  N   GLN A   1      20.122  40.110 113.825  0.00  0.00    -0.239 NA
ATOM      4  H   GLN A   1      20.250  41.064 113.432  0.00  0.00    +0.142 HD
ENDBRANCH   2   3
BRANCH   2   5
ATOM      5  C   GLN A   1      22.375  39.161 114.444  0.00  0.00    +0.224 C 
ATOM      6  O   GLN A   1      23.260  38.315 114.330  0.00  0.00    -0.287 OA
ENDBRANCH   2   5
ENDBRANCH   1   2
BRANCH   1   7
ATOM      7  CG  GLN A   1      20.337  38.960 111.174  0.00  0.00    +0.087 C 
BRANCH   7   8
ATOM      8  CD  GLN A   1      20.646  39.179 109.719  0.00  0.00    +0.219 C 
ATOM      9  OE1 GLN A   1      21.387  40.102 109.369  0.00  0.00    -0.275 OA
ATOM     10  NE2 GLN A   1      20.042  38.363 108.848  0.00  0.00    -0.329 N 
ATOM     11 HE21 GLN A   1      19.426  37.599 109.192  0.00  0.00    +0.145 HD
ATOM     12 HE22 GLN A   1      20.188  38.493 107.827  0.00  0.00    +0.145 HD
ENDBRANCH   7   8
ENDBRANCH   1   7
TORSDOF 5
REMARK  Name = ../refined-set-2016/1ur9/1ur9_pocket.pdb
REMARK  225 active torsions:
REMARK  status: ('A' for Active; 'I' for Inactive)
REMARK    1  A    between atoms: _1  and  _3
REMARK    2  A    between atoms: _3  and  _4
REMARK    3  A    between atoms: _3  and  _6
REMARK    4  A    between atoms: _6  and  _7
REMARK    5  A    between atoms: _12  and  _13
REMARK    6  A    between atoms: _15  and  _17
REMARK    7  A    between atoms: _17  and  _18
REMARK    8  A    between atoms: _17  and  _20
REMARK    9  A    between atoms: _20  and  _21
REMARK   10  A    between atoms: _28  and  _29
REMARK   11  A    between atoms: _34  and  _36
REMARK   12  A    between atoms: _36  and  _37
REMARK   13  A    between atoms: _36  and  _39
REMARK   14  A    between atoms: _39  and  _40
REMARK   15  A    between atoms: _45  and  _47
REMARK   16  A    between atoms: _47  and  _48
REMARK   17  A    between atoms: _47  and  _50
REMARK   18  A    between atoms: _50  and  _51
REMARK   19  A    between atoms: _53  and  _55
REMARK   20  A    between atoms: _55  and  _56
REMARK   21  A    between atoms: _55  and  _58
REMARK   22  A    between atoms: _58  and  _59
REMARK   23  A    between atoms: _65  and  _67
REMARK   24  A    between atoms: _67  and  _68
REMARK   25  A    between atoms: _67  and  _70
REMARK   26  A    between atoms: _70  and  _71
REMARK   27  A    between atoms: _73  and  _75
REMARK   28  A    between atoms: _75  and  _76
REMARK   29  A    between atoms: _78  and  _80
REMARK   30  A    between atoms: _80  and  _81
REMARK   31  A    between atoms: _83  and  _85
REMARK   32  A    between atoms: _85  and  _86
REMARK   33  A    between atoms: _85  and  _88
REMARK   34  A    between atoms: _88  and  _89
REMARK   35  A    between atoms: _99  and  _101
REMARK   36  A    between atoms: _101  and  _102
REMARK   37  A    between atoms: _101  and  _104
REMARK   38  A    between atoms: _104  and  _105
REMARK   39  A    between atoms: _110  and  _111
REMARK   40  A    between atoms: _113  and  _115
REMARK   41  A    between atoms: _115  and  _116
REMARK   42  A    between atoms: _115  and  _118
REMARK   43  A    between atoms: _118  and  _119
REMARK   44  A    between atoms: _124  and  _125
REMARK   45  A    between atoms: _127  and  _129
REMARK   46  A    between atoms: _129  and  _130
REMARK   47  A    between atoms: _129  and  _132
REMARK   48  A    between atoms: _132  and  _133
REMARK   49  A    between atoms: _135  and  _137
REMARK   50  A    between atoms: _137  and  _138
REMARK   51  A    between atoms: _137  and  _140
REMARK   52  A    between atoms: _140  and  _141
REMARK   53  A    between atoms: _146  and  _148
REMARK   54  A    between atoms: _148  and  _149
REMARK   55  A    between atoms: _148  and  _151
REMARK   56  A    between atoms: _151  and  _152
REMARK   57  A    between atoms: _155  and  _157
REMARK   58  A    between atoms: _157  and  _158
REMARK   59  A    between atoms: _157  and  _160
REMARK   60  A    between atoms: _160  and  _161
REMARK   61  A    between atoms: _164  and  _166
REMARK   62  A    between atoms: _166  and  _167
REMARK   63  A    between atoms: _166  and  _169
REMARK   64  A    between atoms: _169  and  _170
REMARK   65  A    between atoms: _175  and  _177
REMARK   66  A    between atoms: _177  and  _178
REMARK   67  A    between atoms: _177  and  _180
REMARK   68  A    between atoms: _180  and  _181
REMARK   69  A    between atoms: _191  and  _193
REMARK   70  A    between atoms: _193  and  _194
REMARK   71  A    between atoms: _193  and  _196
REMARK   72  A    between atoms: _196  and  _197
REMARK   73  A    between atoms: _197  and  _198
REMARK   74  A    between atoms: _201  and  _203
REMARK   75  A    between atoms: _203  and  _204
REMARK   76  A    between atoms: _203  and  _206
REMARK   77  A    between atoms: _206  and  _207
REMARK   78  A    between atoms: _212  and  _213
REMARK   79  A    between atoms: _215  and  _217
REMARK   80  A    between atoms: _217  and  _218
REMARK   81  A    between atoms: _217  and  _220
REMARK   82  A    between atoms: _220  and  _221
REMARK   83  A    between atoms: _224  and  _226
REMARK   84  A    between atoms: _226  and  _227
REMARK   85  A    between atoms: _230  and  _232
REMARK   86  A    between atoms: _232  and  _233
REMARK   87  A    between atoms: _235  and  _237
REMARK   88  A    between atoms: _237  and  _238
REMARK   89  A    between atoms: _241  and  _243
REMARK   90  A    between atoms: _243  and  _244
REMARK   91  A    between atoms: _246  and  _248
REMARK   92  A    between atoms: _248  and  _249
REMARK   93  A    between atoms: _251  and  _253
REMARK   94  A    between atoms: _253  and  _254
REMARK   95  A    between atoms: _253  and  _256
REMARK   96  A    between atoms: _256  and  _257
REMARK   97  A    between atoms: _263  and  _265
REMARK   98  A    between atoms: _265  and  _266
REMARK   99  A    between atoms: _265  and  _268
REMARK  100  A    between atoms: _268  and  _269
REMARK  101  A    between atoms: _275  and  _277
REMARK  102  A    between atoms: _277  and  _278
REMARK  103  A    between atoms: _277  and  _280
REMARK  104  A    between atoms: _280  and  _281
REMARK  105  A    between atoms: _281  and  _282
REMARK  106  A    between atoms: _282  and  _283
REMARK  107  A    between atoms: _292  and  _294
REMARK  108  A    between atoms: _294  and  _295
REMARK  109  A    between atoms: _294  and  _297
REMARK  110  A    between atoms: _297  and  _298
REMARK  111  A    between atoms: _303  and  _305
REMARK  112  A    between atoms: _305  and  _306
REMARK  113  A    between atoms: _305  and  _308
REMARK  114  A    between atoms: _308  and  _309
REMARK  115  A    between atoms: _312  and  _314
REMARK  116  A    between atoms: _314  and  _315
REMARK  117  A    between atoms: _314  and  _317
REMARK  118  A    between atoms: _317  and  _318
REMARK  119  A    between atoms: _318  and  _319
REMARK  120  A    between atoms: _321  and  _323
REMARK  121  A    between atoms: _323  and  _324
REMARK  122  A    between atoms: _323  and  _326
REMARK  123  A    between atoms: _326  and  _327
REMARK  124  A    between atoms: _330  and  _332
REMARK  125  A    between atoms: _332  and  _333
REMARK  126  A    between atoms: _332  and  _335
REMARK  127  A    between atoms: _335  and  _336
REMARK  128  A    between atoms: _341  and  _342
REMARK  129  A    between atoms: _344  and  _346
REMARK  130  A    between atoms: _346  and  _347
REMARK  131  A    between atoms: _346  and  _349
REMARK  132  A    between atoms: _349  and  _350
REMARK  133  A    between atoms: _353  and  _355
REMARK  134  A    between atoms: _355  and  _356
REMARK  135  A    between atoms: _355  and  _358
REMARK  136  A    between atoms: _358  and  _359
REMARK  137  A    between atoms: _362  and  _364
REMARK  138  A    between atoms: _364  and  _365
REMARK  139  A    between atoms: _368  and  _370
REMARK  140  A    between atoms: _370  and  _371
REMARK  141  A    between atoms: _373  and  _375
REMARK  142  A    between atoms: _375  and  _376
REMARK  143  A    between atoms: _375  and  _378
REMARK  144  A    between atoms: _378  and  _379
REMARK  145  A    between atoms: _389  and  _391
REMARK  146  A    between atoms: _391  and  _392
REMARK  147  A    between atoms: _391  and  _394
REMARK  148  A    between atoms: _394  and  _395
REMARK  149  A    between atoms: _395  and  _396
REMARK  150  A    between atoms: _399  and  _401
REMARK  151  A    between atoms: _401  and  _402
REMARK  152  A    between atoms: _401  and  _404
REMARK  153  A    between atoms: _404  and  _405
REMARK  154  A    between atoms: _405  and  _406
REMARK  155  A    between atoms: _411  and  _413
REMARK  156  A    between atoms: _413  and  _414
REMARK  157  A    between atoms: _413  and  _416
REMARK  158  A    between atoms: _420  and  _421
REMARK  159  A    between atoms: _426  and  _428
REMARK  160  A    between atoms: _428  and  _429
REMARK  161  A    between atoms: _428  and  _431
REMARK  162  A    between atoms: _431  and  _432
REMARK  163  A    between atoms: _438  and  _440
REMARK  164  A    between atoms: _440  and  _441
REMARK  165  A    between atoms: _440  and  _443
REMARK  166  A    between atoms: _443  and  _444
REMARK  167  A    between atoms: _449  and  _450
REMARK  168  A    between atoms: _452  and  _454
REMARK  169  A    between atoms: _454  and  _455
REMARK  170  A    between atoms: _457  and  _459
REMARK  171  A    between atoms: _459  and  _460
REMARK  172  A    between atoms: _459  and  _462
REMARK  173  A    between atoms: _462  and  _463
REMARK  174  A    between atoms: _463  and  _464
REMARK  175  A    between atoms: _464  and  _465
REMARK  176  A    between atoms: _474  and  _476
REMARK  177  A    between atoms: _476  and  _477
REMARK  178  A    between atoms: _476  and  _479
REMARK  179  A    between atoms: _479  and  _480
REMARK  180  A    between atoms: _483  and  _485
REMARK  181  A    between atoms: _485  and  _486
REMARK  182  A    between atoms: _485  and  _488
REMARK  183  A    between atoms: _488  and  _489
REMARK  184  A    between atoms: _492  and  _494
REMARK  185  A    between atoms: _494  and  _495
REMARK  186  A    between atoms: _494  and  _497
REMARK  187  A    between atoms: _497  and  _498
REMARK  188  A    between atoms: _501  and  _503
REMARK  189  A    between atoms: _503  and  _504
REMARK  190  A    between atoms: _503  and  _506
REMARK  191  A    between atoms: _506  and  _507
REMARK  192  A    between atoms: _507  and  _508
REMARK  193  A    between atoms: _508  and  _509
REMARK  194  A    between atoms: _518  and  _520
REMARK  195  A    between atoms: _520  and  _521
REMARK  196  A    between atoms: _520  and  _523
REMARK  197  A    between atoms: _523  and  _524
REMARK  198  A    between atoms: _527  and  _529
REMARK  199  A    between atoms: _529  and  _530
REMARK  200  A    between atoms: _533  and  _535
REMARK  201  A    between atoms: _535  and  _536
REMARK  202  A    between atoms: _535  and  _538
REMARK  203  A    between atoms: _538  and  _539
REMARK  204  A    between atoms: _541  and  _543
REMARK  205  A    between atoms: _543  and  _544
REMARK  206  A    between atoms: _543  and  _546
REMARK  207  A    between atoms: _546  and  _547
REMARK  208  A    between atoms: _547  and  _548
REMARK  209  A    between atoms: _550  and  _552
REMARK  210  A    between atoms: _552  and  _553
REMARK  211  A    between atoms: _552  and  _555
REMARK  212  A    between atoms: _555  and  _556
REMARK  213  A    between atoms: _562  and  _564
REMARK  214  A    between atoms: _564  and  _565
REMARK  215  A    between atoms: _564  and  _567
REMARK  216  A    between atoms: _567  and  _568
REMARK  217  A    between atoms: _578  and  _580
REMARK  218  A    between atoms: _580  and  _581
REMARK  219  A    between atoms: _580  and  _583
REMARK  220  A    between atoms: _583  and  _584
REMARK  221  A    between atoms: _589  and  _591
REMARK  222  A    between atoms: _591  and  _592
REMARK  223  A    between atoms: _591  and  _594
REMARK  224  A    between atoms: _594  and  _595
REMARK  225  A    between atoms: _595  and  _596
REMARK                            x       y       z     vdW  Elec       q    Type
REMARK                         _______ _______ _______ _____ _____    ______ ____
ROOT
ATOM      1  O   HOH     1      14.410  36.934 112.875  0.00  0.00    +0.000 OA
ENDROOT
TORSDOF 0
REMARK  Name = ../refined-set-2016/1ur9/1ur9_pocket.pdb
REMARK  225 active torsions:
REMARK  status: ('A' for Active; 'I' for Inactive)
REMARK    1  A    between atoms: _1  and  _3
REMARK    2  A    between atoms: _3  and  _4
REMARK    3  A    between atoms: _3  and  _6
REMARK    4  A    between atoms: _6  and  _7
REMARK    5  A    between atoms: _12  and  _13
REMARK    6  A    between atoms: _15  and  _17
REMARK    7  A    between atoms: _17  and  _18
REMARK    8  A    between atoms: _17  and  _20
REMARK    9  A    between atoms: _20  and  _21
REMARK   10  A    between atoms: _28  and  _29
REMARK   11  A    between atoms: _34  and  _36
REMARK   12  A    between atoms: _36  and  _37
REMARK   13  A    between atoms: _36  and  _39
REMARK   14  A    between atoms: _39  and  _40
REMARK   15  A    between atoms: _45  and  _47
REMARK   16  A    between atoms: _47  and  _48
REMARK   17  A    between atoms: _47  and  _50
REMARK   18  A    between atoms: _50  and  _51
REMARK   19  A    between atoms: _53  and  _55
REMARK   20  A    between atoms: _55  and  _56
REMARK   21  A    between atoms: _55  and  _58
REMARK   22  A    between atoms: _58  and  _59
REMARK   23  A    between atoms: _65  and  _67
REMARK   24  A    between atoms: _67  and  _68
REMARK   25  A    between atoms: _67  and  _70
REMARK   26  A    between atoms: _70  and  _71
REMARK   27  A    between atoms: _73  and  _75
REMARK   28  A    between atoms: _75  and  _76
REMARK   29  A    between atoms: _78  and  _80
REMARK   30  A    between atoms: _80  and  _81
REMARK   31  A    between atoms: _83  and  _85
REMARK   32  A    between atoms: _85  and  _86
REMARK   33  A    between atoms: _85  and  _88
REMARK   34  A    between atoms: _88  and  _89
REMARK   35  A    between atoms: _99  and  _101
REMARK   36  A    between atoms: _101  and  _102
REMARK   37  A    between atoms: _101  and  _104
REMARK   38  A    between atoms: _104  and  _105
REMARK   39  A    between atoms: _110  and  _111
REMARK   40  A    between atoms: _113  and  _115
REMARK   41  A    between atoms: _115  and  _116
REMARK   42  A    between atoms: _115  and  _118
REMARK   43  A    between atoms: _118  and  _119
REMARK   44  A    between atoms: _124  and  _125
REMARK   45  A    between atoms: _127  and  _129
REMARK   46  A    between atoms: _129  and  _130
REMARK   47  A    between atoms: _129  and  _132
REMARK   48  A    between atoms: _132  and  _133
REMARK   49  A    between atoms: _135  and  _137
REMARK   50  A    between atoms: _137  and  _138
REMARK   51  A    between atoms: _137  and  _140
REMARK   52  A    between atoms: _140  and  _141
REMARK   53  A    between atoms: _146  and  _148
REMARK   54  A    between atoms: _148  and  _149
REMARK   55  A    between atoms: _148  and  _151
REMARK   56  A    between atoms: _151  and  _152
REMARK   57  A    between atoms: _155  and  _157
REMARK   58  A    between atoms: _157  and  _158
REMARK   59  A    between atoms: _157  and  _160
REMARK   60  A    between atoms: _160  and  _161
REMARK   61  A    between atoms: _164  and  _166
REMARK   62  A    between atoms: _166  and  _167
REMARK   63  A    between atoms: _166  and  _169
REMARK   64  A    between atoms: _169  and  _170
REMARK   65  A    between atoms: _175  and  _177
REMARK   66  A    between atoms: _177  and  _178
REMARK   67  A    between atoms: _177  and  _180
REMARK   68  A    between atoms: _180  and  _181
REMARK   69  A    between atoms: _191  and  _193
REMARK   70  A    between atoms: _193  and  _194
REMARK   71  A    between atoms: _193  and  _196
REMARK   72  A    between atoms: _196  and  _197
REMARK   73  A    between atoms: _197  and  _198
REMARK   74  A    between atoms: _201  and  _203
REMARK   75  A    between atoms: _203  and  _204
REMARK   76  A    between atoms: _203  and  _206
REMARK   77  A    between atoms: _206  and  _207
REMARK   78  A    between atoms: _212  and  _213
REMARK   79  A    between atoms: _215  and  _217
REMARK   80  A    between atoms: _217  and  _218
REMARK   81  A    between atoms: _217  and  _220
REMARK   82  A    between atoms: _220  and  _221
REMARK   83  A    between atoms: _224  and  _226
REMARK   84  A    between atoms: _226  and  _227
REMARK   85  A    between atoms: _230  and  _232
REMARK   86  A    between atoms: _232  and  _233
REMARK   87  A    between atoms: _235  and  _237
REMARK   88  A    between atoms: _237  and  _238
REMARK   89  A    between atoms: _241  and  _243
REMARK   90  A    between atoms: _243  and  _244
REMARK   91  A    between atoms: _246  and  _248
REMARK   92  A    between atoms: _248  and  _249
REMARK   93  A    between atoms: _251  and  _253
REMARK   94  A    between atoms: _253  and  _254
REMARK   95  A    between atoms: _253  and  _256
REMARK   96  A    between atoms: _256  and  _257
REMARK   97  A    between atoms: _263  and  _265
REMARK   98  A    between atoms: _265  and  _266
REMARK   99  A    between atoms: _265  and  _268
REMARK  100  A    between atoms: _268  and  _269
REMARK  101  A    between atoms: _275  and  _277
REMARK  102  A    between atoms: _277  and  _278
REMARK  103  A    between atoms: _277  and  _280
REMARK  104  A    between atoms: _280  and  _281
REMARK  105  A    between atoms: _281  and  _282
REMARK  106  A    between atoms: _282  and  _283
REMARK  107  A    between atoms: _292  and  _294
REMARK  108  A    between atoms: _294  and  _295
REMARK  109  A    between atoms: _294  and  _297
REMARK  110  A    between atoms: _297  and  _298
REMARK  111  A    between atoms: _303  and  _305
REMARK  112  A    between atoms: _305  and  _306
REMARK  113  A    between atoms: _305  and  _308
REMARK  114  A    between atoms: _308  and  _309
REMARK  115  A    between atoms: _312  and  _314
REMARK  116  A    between atoms: _314  and  _315
REMARK  117  A    between atoms: _314  and  _317
REMARK  118  A    between atoms: _317  and  _318
REMARK  119  A    between atoms: _318  and  _319
REMARK  120  A    between atoms: _321  and  _323
REMARK  121  A    between atoms: _323  and  _324
REMARK  122  A    between atoms: _323  and  _326
REMARK  123  A    between atoms: _326  and  _327
REMARK  124  A    between atoms: _330  and  _332
REMARK  125  A    between atoms: _332  and  _333
REMARK  126  A    between atoms: _332  and  _335
REMARK  127  A    between atoms: _335  and  _336
REMARK  128  A    between atoms: _341  and  _342
REMARK  129  A    between atoms: _344  and  _346
REMARK  130  A    between atoms: _346  and  _347
REMARK  131  A    between atoms: _346  and  _349
REMARK  132  A    between atoms: _349  and  _350
REMARK  133  A    between atoms: _353  and  _355
REMARK  134  A    between atoms: _355  and  _356
REMARK  135  A    between atoms: _355  and  _358
REMARK  136  A    between atoms: _358  and  _359
REMARK  137  A    between atoms: _362  and  _364
REMARK  138  A    between atoms: _364  and  _365
REMARK  139  A    between atoms: _368  and  _370
REMARK  140  A    between atoms: _370  and  _371
REMARK  141  A    between atoms: _373  and  _375
REMARK  142  A    between atoms: _375  and  _376
REMARK  143  A    between atoms: _375  and  _378
REMARK  144  A    between atoms: _378  and  _379
REMARK  145  A    between atoms: _389  and  _391
REMARK  146  A    between atoms: _391  and  _392
REMARK  147  A    between atoms: _391  and  _394
REMARK  148  A    between atoms: _394  and  _395
REMARK  149  A    between atoms: _395  and  _396
REMARK  150  A    between atoms: _399  and  _401
REMARK  151  A    between atoms: _401  and  _402
REMARK  152  A    between atoms: _401  and  _404
REMARK  153  A    between atoms: _404  and  _405
REMARK  154  A    between atoms: _405  and  _406
REMARK  155  A    between atoms: _411  and  _413
REMARK  156  A    between atoms: _413  and  _414
REMARK  157  A    between atoms: _413  and  _416
REMARK  158  A    between atoms: _420  and  _421
REMARK  159  A    between atoms: _426  and  _428
REMARK  160  A    between atoms: _428  and  _429
REMARK  161  A    between atoms: _428  and  _431
REMARK  162  A    between atoms: _431  and  _432
REMARK  163  A    between atoms: _438  and  _440
REMARK  164  A    between atoms: _440  and  _441
REMARK  165  A    between atoms: _440  and  _443
REMARK  166  A    between atoms: _443  and  _444
REMARK  167  A    between atoms: _449  and  _450
REMARK  168  A    between atoms: _452  and  _454
REMARK  169  A    between atoms: _454  and  _455
REMARK  170  A    between atoms: _457  and  _459
REMARK  171  A    between atoms: _459  and  _460
REMARK  172  A    between atoms: _459  and  _462
REMARK  173  A    between atoms: _462  and  _463
REMARK  174  A    between atoms: _463  and  _464
REMARK  175  A    between atoms: _464  and  _465
REMARK  176  A    between atoms: _474  and  _476
REMARK  177  A    between atoms: _476  and  _477
REMARK  178  A    between atoms: _476  and  _479
REMARK  179  A    between atoms: _479  and  _480
REMARK  180  A    between atoms: _483  and  _485
REMARK  181  A    between atoms: _485  and  _486
REMARK  182  A    between atoms: _485  and  _488
REMARK  183  A    between atoms: _488  and  _489
REMARK  184  A    between atoms: _492  and  _494
REMARK  185  A    between atoms: _494  and  _495
REMARK  186  A    between atoms: _494  and  _497
REMARK  187  A    between atoms: _497  and  _498
REMARK  188  A    between atoms: _501  and  _503
REMARK  189  A    between atoms: _503  and  _504
REMARK  190  A    between atoms: _503  and  _506
REMARK  191  A    between atoms: _506  and  _507
REMARK  192  A    between atoms: _507  and  _508
REMARK  193  A    between atoms: _508  and  _509
REMARK  194  A    between atoms: _518  and  _520
REMARK  195  A    between atoms: _520  and  _521
REMARK  196  A    between atoms: _520  and  _523
REMARK  197  A    between atoms: _523  and  _524
REMARK  198  A    between atoms: _527  and  _529
REMARK  199  A    between atoms: _529  and  _530
REMARK  200  A    between atoms: _533  and  _535
REMARK  201  A    between atoms: _535  and  _536
REMARK  202  A    between atoms: _535  and  _538
REMARK  203  A    between atoms: _538  and  _539
REMARK  204  A    between atoms: _541  and  _543
REMARK  205  A    between atoms: _543  and  _544
REMARK  206  A    between atoms: _543  and  _546
REMARK  207  A    between atoms: _546  and  _547
REMARK  208  A    between atoms: _547  and  _548
REMARK  209  A    between atoms: _550  and  _552
REMARK  210  A    between atoms: _552  and  _553
REMARK  211  A    between atoms: _552  and  _555
REMARK  212  A    between atoms: _555  and  _556
REMARK  213  A    between atoms: _562  and  _564
REMARK  214  A    between atoms: _564  and  _565
REMARK  215  A    between atoms: _564  and  _567
REMARK  216  A    between atoms: _567  and  _568
REMARK  217  A    between atoms: _578  and  _580
REMARK  218  A    between atoms: _580  and  _581
REMARK  219  A    between atoms: _580  and  _583
REMARK  220  A    between atoms: _583  and  _584
REMARK  221  A    between atoms: _589  and  _591
REMARK  222  A    between atoms: _591  and  _592
REMARK  223  A    between atoms: _591  and  _594
REMARK  224  A    between atoms: _594  and  _595
REMARK  225  A    between atoms: _595  and  _596
REMARK                            x       y       z     vdW  Elec       q    Type
REMARK                         _______ _______ _______ _____ _____    ______ ____
ROOT
ATOM      1  O   HOH     1      12.875  37.794  99.776  0.00  0.00    +0.000 OA
ENDROOT
TORSDOF 0
REMARK  Name = ../refined-set-2016/1ur9/1ur9_pocket.pdb
REMARK  225 active torsions:
REMARK  status: ('A' for Active; 'I' for Inactive)
REMARK    1  A    between atoms: _1  and  _3
REMARK    2  A    between atoms: _3  and  _4
REMARK    3  A    between atoms: _3  and  _6
REMARK    4  A    between atoms: _6  and  _7
REMARK    5  A    between atoms: _12  and  _13
REMARK    6  A    between atoms: _15  and  _17
REMARK    7  A    between atoms: _17  and  _18
REMARK    8  A    between atoms: _17  and  _20
REMARK    9  A    between atoms: _20  and  _21
REMARK   10  A    between atoms: _28  and  _29
REMARK   11  A    between atoms: _34  and  _36
REMARK   12  A    between atoms: _36  and  _37
REMARK   13  A    between atoms: _36  and  _39
REMARK   14  A    between atoms: _39  and  _40
REMARK   15  A    between atoms: _45  and  _47
REMARK   16  A    between atoms: _47  and  _48
REMARK   17  A    between atoms: _47  and  _50
REMARK   18  A    between atoms: _50  and  _51
REMARK   19  A    between atoms: _53  and  _55
REMARK   20  A    between atoms: _55  and  _56
REMARK   21  A    between atoms: _55  and  _58
REMARK   22  A    between atoms: _58  and  _59
REMARK   23  A    between atoms: _65  and  _67
REMARK   24  A    between atoms: _67  and  _68
REMARK   25  A    between atoms: _67  and  _70
REMARK   26  A    between atoms: _70  and  _71
REMARK   27  A    between atoms: _73  and  _75
REMARK   28  A    between atoms: _75  and  _76
REMARK   29  A    between atoms: _78  and  _80
REMARK   30  A    between atoms: _80  and  _81
REMARK   31  A    between atoms: _83  and  _85
REMARK   32  A    between atoms: _85  and  _86
REMARK   33  A    between atoms: _85  and  _88
REMARK   34  A    between atoms: _88  and  _89
REMARK   35  A    between atoms: _99  and  _101
REMARK   36  A    between atoms: _101  and  _102
REMARK   37  A    between atoms: _101  and  _104
REMARK   38  A    between atoms: _104  and  _105
REMARK   39  A    between atoms: _110  and  _111
REMARK   40  A    between atoms: _113  and  _115
REMARK   41  A    between atoms: _115  and  _116
REMARK   42  A    between atoms: _115  and  _118
REMARK   43  A    between atoms: _118  and  _119
REMARK   44  A    between atoms: _124  and  _125
REMARK   45  A    between atoms: _127  and  _129
REMARK   46  A    between atoms: _129  and  _130
REMARK   47  A    between atoms: _129  and  _132
REMARK   48  A    between atoms: _132  and  _133
REMARK   49  A    between atoms: _135  and  _137
REMARK   50  A    between atoms: _137  and  _138
REMARK   51  A    between atoms: _137  and  _140
REMARK   52  A    between atoms: _140  and  _141
REMARK   53  A    between atoms: _146  and  _148
REMARK   54  A    between atoms: _148  and  _149
REMARK   55  A    between atoms: _148  and  _151
REMARK   56  A    between atoms: _151  and  _152
REMARK   57  A    between atoms: _155  and  _157
REMARK   58  A    between atoms: _157  and  _158
REMARK   59  A    between atoms: _157  and  _160
REMARK   60  A    between atoms: _160  and  _161
REMARK   61  A    between atoms: _164  and  _166
REMARK   62  A    between atoms: _166  and  _167
REMARK   63  A    between atoms: _166  and  _169
REMARK   64  A    between atoms: _169  and  _170
REMARK   65  A    between atoms: _175  and  _177
REMARK   66  A    between atoms: _177  and  _178
REMARK   67  A    between atoms: _177  and  _180
REMARK   68  A    between atoms: _180  and  _181
REMARK   69  A    between atoms: _191  and  _193
REMARK   70  A    between atoms: _193  and  _194
REMARK   71  A    between atoms: _193  and  _196
REMARK   72  A    between atoms: _196  and  _197
REMARK   73  A    between atoms: _197  and  _198
REMARK   74  A    between atoms: _201  and  _203
REMARK   75  A    between atoms: _203  and  _204
REMARK   76  A    between atoms: _203  and  _206
REMARK   77  A    between atoms: _206  and  _207
REMARK   78  A    between atoms: _212  and  _213
REMARK   79  A    between atoms: _215  and  _217
REMARK   80  A    between atoms: _217  and  _218
REMARK   81  A    between atoms: _217  and  _220
REMARK   82  A    between atoms: _220  and  _221
REMARK   83  A    between atoms: _224  and  _226
REMARK   84  A    between atoms: _226  and  _227
REMARK   85  A    between atoms: _230  and  _232
REMARK   86  A    between atoms: _232  and  _233
REMARK   87  A    between atoms: _235  and  _237
REMARK   88  A    between atoms: _237  and  _238
REMARK   89  A    between atoms: _241  and  _243
REMARK   90  A    between atoms: _243  and  _244
REMARK   91  A    between atoms: _246  and  _248
REMARK   92  A    between atoms: _248  and  _249
REMARK   93  A    between atoms: _251  and  _253
REMARK   94  A    between atoms: _253  and  _254
REMARK   95  A    between atoms: _253  and  _256
REMARK   96  A    between atoms: _256  and  _257
REMARK   97  A    between atoms: _263  and  _265
REMARK   98  A    between atoms: _265  and  _266
REMARK   99  A    between atoms: _265  and  _268
REMARK  100  A    between atoms: _268  and  _269
REMARK  101  A    between atoms: _275  and  _277
REMARK  102  A    between atoms: _277  and  _278
REMARK  103  A    between atoms: _277  and  _280
REMARK  104  A    between atoms: _280  and  _281
REMARK  105  A    between atoms: _281  and  _282
REMARK  106  A    between atoms: _282  and  _283
REMARK  107  A    between atoms: _292  and  _294
REMARK  108  A    between atoms: _294  and  _295
REMARK  109  A    between atoms: _294  and  _297
REMARK  110  A    between atoms: _297  and  _298
REMARK  111  A    between atoms: _303  and  _305
REMARK  112  A    between atoms: _305  and  _306
REMARK  113  A    between atoms: _305  and  _308
REMARK  114  A    between atoms: _308  and  _309
REMARK  115  A    between atoms: _312  and  _314
REMARK  116  A    between atoms: _314  and  _315
REMARK  117  A    between atoms: _314  and  _317
REMARK  118  A    between atoms: _317  and  _318
REMARK  119  A    between atoms: _318  and  _319
REMARK  120  A    between atoms: _321  and  _323
REMARK  121  A    between atoms: _323  and  _324
REMARK  122  A    between atoms: _323  and  _326
REMARK  123  A    between atoms: _326  and  _327
REMARK  124  A    between atoms: _330  and  _332
REMARK  125  A    between atoms: _332  and  _333
REMARK  126  A    between atoms: _332  and  _335
REMARK  127  A    between atoms: _335  and  _336
REMARK  128  A    between atoms: _341  and  _342
REMARK  129  A    between atoms: _344  and  _346
REMARK  130  A    between atoms: _346  and  _347
REMARK  131  A    between atoms: _346  and  _349
REMARK  132  A    between atoms: _349  and  _350
REMARK  133  A    between atoms: _353  and  _355
REMARK  134  A    between atoms: _355  and  _356
REMARK  135  A    between atoms: _355  and  _358
REMARK  136  A    between atoms: _358  and  _359
REMARK  137  A    between atoms: _362  and  _364
REMARK  138  A    between atoms: _364  and  _365
REMARK  139  A    between atoms: _368  and  _370
REMARK  140  A    between atoms: _370  and  _371
REMARK  141  A    between atoms: _373  and  _375
REMARK  142  A    between atoms: _375  and  _376
REMARK  143  A    between atoms: _375  and  _378
REMARK  144  A    between atoms: _378  and  _379
REMARK  145  A    between atoms: _389  and  _391
REMARK  146  A    between atoms: _391  and  _392
REMARK  147  A    between atoms: _391  and  _394
REMARK  148  A    between atoms: _394  and  _395
REMARK  149  A    between atoms: _395  and  _396
REMARK  150  A    between atoms: _399  and  _401
REMARK  151  A    between atoms: _401  and  _402
REMARK  152  A    between atoms: _401  and  _404
REMARK  153  A    between atoms: _404  and  _405
REMARK  154  A    between atoms: _405  and  _406
REMARK  155  A    between atoms: _411  and  _413
REMARK  156  A    between atoms: _413  and  _414
REMARK  157  A    between atoms: _413  and  _416
REMARK  158  A    between atoms: _420  and  _421
REMARK  159  A    between atoms: _426  and  _428
REMARK  160  A    between atoms: _428  and  _429
REMARK  161  A    between atoms: _428  and  _431
REMARK  162  A    between atoms: _431  and  _432
REMARK  163  A    between atoms: _438  and  _440
REMARK  164  A    between atoms: _440  and  _441
REMARK  165  A    between atoms: _440  and  _443
REMARK  166  A    between atoms: _443  and  _444
REMARK  167  A    between atoms: _449  and  _450
REMARK  168  A    between atoms: _452  and  _454
REMARK  169  A    between atoms: _454  and  _455
REMARK  170  A    between atoms: _457  and  _459
REMARK  171  A    between atoms: _459  and  _460
REMARK  172  A    between atoms: _459  and  _462
REMARK  173  A    between atoms: _462  and  _463
REMARK  174  A    between atoms: _463  and  _464
REMARK  175  A    between atoms: _464  and  _465
REMARK  176  A    between atoms: _474  and  _476
REMARK  177  A    between atoms: _476  and  _477
REMARK  178  A    between atoms: _476  and  _479
REMARK  179  A    between atoms: _479  and  _480
REMARK  180  A    between atoms: _483  and  _485
REMARK  181  A    between atoms: _485  and  _486
REMARK  182  A    between atoms: _485  and  _488
REMARK  183  A    between atoms: _488  and  _489
REMARK  184  A    between atoms: _492  and  _494
REMARK  185  A    between atoms: _494  and  _495
REMARK  186  A    between atoms: _494  and  _497
REMARK  187  A    between atoms: _497  and  _498
REMARK  188  A    between atoms: _501  and  _503
REMARK  189  A    between atoms: _503  and  _504
REMARK  190  A    between atoms: _503  and  _506
REMARK  191  A    between atoms: _506  and  _507
REMARK  192  A    between atoms: _507  and  _508
REMARK  193  A    between atoms: _508  and  _509
REMARK  194  A    between atoms: _518  and  _520
REMARK  195  A    between atoms: _520  and  _521
REMARK  196  A    between atoms: _520  and  _523
REMARK  197  A    between atoms: _523  and  _524
REMARK  198  A    between atoms: _527  and  _529
REMARK  199  A    between atoms: _529  and  _530
REMARK  200  A    between atoms: _533  and  _535
REMARK  201  A    between atoms: _535  and  _536
REMARK  202  A    between atoms: _535  and  _538
REMARK  203  A    between atoms: _538  and  _539
REMARK  204  A    between atoms: _541  and  _543
REMARK  205  A    between atoms: _543  and  _544
REMARK  206  A    between atoms: _543  and  _546
REMARK  207  A    between atoms: _546  and  _547
REMARK  208  A    between atoms: _547  and  _548
REMARK  209  A    between atoms: _550  and  _552
REMARK  210  A    between atoms: _552  and  _553
REMARK  211  A    between atoms: _552  and  _555
REMARK  212  A    between atoms: _555  and  _556
REMARK  213  A    between atoms: _562  and  _564
REMARK  214  A    between atoms: _564  and  _565
REMARK  215  A    between atoms: _564  and  _567
REMARK  216  A    between atoms: _567  and  _568
REMARK  217  A    between atoms: _578  and  _580
REMARK  218  A    between atoms: _580  and  _581
REMARK  219  A    between atoms: _580  and  _583
REMARK  220  A    between atoms: _583  and  _584
REMARK  221  A    between atoms: _589  and  _591
REMARK  222  A    between atoms: _591  and  _592
REMARK  223  A    between atoms: _591  and  _594
REMARK  224  A    between atoms: _594  and  _595
REMARK  225  A    between atoms: _595  and  _596
REMARK                            x       y       z     vdW  Elec       q    Type
REMARK                         _______ _______ _______ _____ _____    ______ ____
ROOT
ATOM      1  O   HOH     1      16.199  32.571 105.528  0.00  0.00    +0.000 OA
ENDROOT
TORSDOF 0
REMARK  Name = ../refined-set-2016/1ur9/1ur9_pocket.pdb
REMARK  225 active torsions:
REMARK  status: ('A' for Active; 'I' for Inactive)
REMARK    1  A    between atoms: _1  and  _3
REMARK    2  A    between atoms: _3  and  _4
REMARK    3  A    between atoms: _3  and  _6
REMARK    4  A    between atoms: _6  and  _7
REMARK    5  A    between atoms: _12  and  _13
REMARK    6  A    between atoms: _15  and  _17
REMARK    7  A    between atoms: _17  and  _18
REMARK    8  A    between atoms: _17  and  _20
REMARK    9  A    between atoms: _20  and  _21
REMARK   10  A    between atoms: _28  and  _29
REMARK   11  A    between atoms: _34  and  _36
REMARK   12  A    between atoms: _36  and  _37
REMARK   13  A    between atoms: _36  and  _39
REMARK   14  A    between atoms: _39  and  _40
REMARK   15  A    between atoms: _45  and  _47
REMARK   16  A    between atoms: _47  and  _48
REMARK   17  A    between atoms: _47  and  _50
REMARK   18  A    between atoms: _50  and  _51
REMARK   19  A    between atoms: _53  and  _55
REMARK   20  A    between atoms: _55  and  _56
REMARK   21  A    between atoms: _55  and  _58
REMARK   22  A    between atoms: _58  and  _59
REMARK   23  A    between atoms: _65  and  _67
REMARK   24  A    between atoms: _67  and  _68
REMARK   25  A    between atoms: _67  and  _70
REMARK   26  A    between atoms: _70  and  _71
REMARK   27  A    between atoms: _73  and  _75
REMARK   28  A    between atoms: _75  and  _76
REMARK   29  A    between atoms: _78  and  _80
REMARK   30  A    between atoms: _80  and  _81
REMARK   31  A    between atoms: _83  and  _85
REMARK   32  A    between atoms: _85  and  _86
REMARK   33  A    between atoms: _85  and  _88
REMARK   34  A    between atoms: _88  and  _89
REMARK   35  A    between atoms: _99  and  _101
REMARK   36  A    between atoms: _101  and  _102
REMARK   37  A    between atoms: _101  and  _104
REMARK   38  A    between atoms: _104  and  _105
REMARK   39  A    between atoms: _110  and  _111
REMARK   40  A    between atoms: _113  and  _115
REMARK   41  A    between atoms: _115  and  _116
REMARK   42  A    between atoms: _115  and  _118
REMARK   43  A    between atoms: _118  and  _119
REMARK   44  A    between atoms: _124  and  _125
REMARK   45  A    between atoms: _127  and  _129
REMARK   46  A    between atoms: _129  and  _130
REMARK   47  A    between atoms: _129  and  _132
REMARK   48  A    between atoms: _132  and  _133
REMARK   49  A    between atoms: _135  and  _137
REMARK   50  A    between atoms: _137  and  _138
REMARK   51  A    between atoms: _137  and  _140
REMARK   52  A    between atoms: _140  and  _141
REMARK   53  A    between atoms: _146  and  _148
REMARK   54  A    between atoms: _148  and  _149
REMARK   55  A    between atoms: _148  and  _151
REMARK   56  A    between atoms: _151  and  _152
REMARK   57  A    between atoms: _155  and  _157
REMARK   58  A    between atoms: _157  and  _158
REMARK   59  A    between atoms: _157  and  _160
REMARK   60  A    between atoms: _160  and  _161
REMARK   61  A    between atoms: _164  and  _166
REMARK   62  A    between atoms: _166  and  _167
REMARK   63  A    between atoms: _166  and  _169
REMARK   64  A    between atoms: _169  and  _170
REMARK   65  A    between atoms: _175  and  _177
REMARK   66  A    between atoms: _177  and  _178
REMARK   67  A    between atoms: _177  and  _180
REMARK   68  A    between atoms: _180  and  _181
REMARK   69  A    between atoms: _191  and  _193
REMARK   70  A    between atoms: _193  and  _194
REMARK   71  A    between atoms: _193  and  _196
REMARK   72  A    between atoms: _196  and  _197
REMARK   73  A    between atoms: _197  and  _198
REMARK   74  A    between atoms: _201  and  _203
REMARK   75  A    between atoms: _203  and  _204
REMARK   76  A    between atoms: _203  and  _206
REMARK   77  A    between atoms: _206  and  _207
REMARK   78  A    between atoms: _212  and  _213
REMARK   79  A    between atoms: _215  and  _217
REMARK   80  A    between atoms: _217  and  _218
REMARK   81  A    between atoms: _217  and  _220
REMARK   82  A    between atoms: _220  and  _221
REMARK   83  A    between atoms: _224  and  _226
REMARK   84  A    between atoms: _226  and  _227
REMARK   85  A    between atoms: _230  and  _232
REMARK   86  A    between atoms: _232  and  _233
REMARK   87  A    between atoms: _235  and  _237
REMARK   88  A    between atoms: _237  and  _238
REMARK   89  A    between atoms: _241  and  _243
REMARK   90  A    between atoms: _243  and  _244
REMARK   91  A    between atoms: _246  and  _248
REMARK   92  A    between atoms: _248  and  _249
REMARK   93  A    between atoms: _251  and  _253
REMARK   94  A    between atoms: _253  and  _254
REMARK   95  A    between atoms: _253  and  _256
REMARK   96  A    between atoms: _256  and  _257
REMARK   97  A    between atoms: _263  and  _265
REMARK   98  A    between atoms: _265  and  _266
REMARK   99  A    between atoms: _265  and  _268
REMARK  100  A    between atoms: _268  and  _269
REMARK  101  A    between atoms: _275  and  _277
REMARK  102  A    between atoms: _277  and  _278
REMARK  103  A    between atoms: _277  and  _280
REMARK  104  A    between atoms: _280  and  _281
REMARK  105  A    between atoms: _281  and  _282
REMARK  106  A    between atoms: _282  and  _283
REMARK  107  A    between atoms: _292  and  _294
REMARK  108  A    between atoms: _294  and  _295
REMARK  109  A    between atoms: _294  and  _297
REMARK  110  A    between atoms: _297  and  _298
REMARK  111  A    between atoms: _303  and  _305
REMARK  112  A    between atoms: _305  and  _306
REMARK  113  A    between atoms: _305  and  _308
REMARK  114  A    between atoms: _308  and  _309
REMARK  115  A    between atoms: _312  and  _314
REMARK  116  A    between atoms: _314  and  _315
REMARK  117  A    between atoms: _314  and  _317
REMARK  118  A    between atoms: _317  and  _318
REMARK  119  A    between atoms: _318  and  _319
REMARK  120  A    between atoms: _321  and  _323
REMARK  121  A    between atoms: _323  and  _324
REMARK  122  A    between atoms: _323  and  _326
REMARK  123  A    between atoms: _326  and  _327
REMARK  124  A    between atoms: _330  and  _332
REMARK  125  A    between atoms: _332  and  _333
REMARK  126  A    between atoms: _332  and  _335
REMARK  127  A    between atoms: _335  and  _336
REMARK  128  A    between atoms: _341  and  _342
REMARK  129  A    between atoms: _344  and  _346
REMARK  130  A    between atoms: _346  and  _347
REMARK  131  A    between atoms: _346  and  _349
REMARK  132  A    between atoms: _349  and  _350
REMARK  133  A    between atoms: _353  and  _355
REMARK  134  A    between atoms: _355  and  _356
REMARK  135  A    between atoms: _355  and  _358
REMARK  136  A    between atoms: _358  and  _359
REMARK  137  A    between atoms: _362  and  _364
REMARK  138  A    between atoms: _364  and  _365
REMARK  139  A    between atoms: _368  and  _370
REMARK  140  A    between atoms: _370  and  _371
REMARK  141  A    between atoms: _373  and  _375
REMARK  142  A    between atoms: _375  and  _376
REMARK  143  A    between atoms: _375  and  _378
REMARK  144  A    between atoms: _378  and  _379
REMARK  145  A    between atoms: _389  and  _391
REMARK  146  A    between atoms: _391  and  _392
REMARK  147  A    between atoms: _391  and  _394
REMARK  148  A    between atoms: _394  and  _395
REMARK  149  A    between atoms: _395  and  _396
REMARK  150  A    between atoms: _399  and  _401
REMARK  151  A    between atoms: _401  and  _402
REMARK  152  A    between atoms: _401  and  _404
REMARK  153  A    between atoms: _404  and  _405
REMARK  154  A    between atoms: _405  and  _406
REMARK  155  A    between atoms: _411  and  _413
REMARK  156  A    between atoms: _413  and  _414
REMARK  157  A    between atoms: _413  and  _416
REMARK  158  A    between atoms: _420  and  _421
REMARK  159  A    between atoms: _426  and  _428
REMARK  160  A    between atoms: _428  and  _429
REMARK  161  A    between atoms: _428  and  _431
REMARK  162  A    between atoms: _431  and  _432
REMARK  163  A    between atoms: _438  and  _440
REMARK  164  A    between atoms: _440  and  _441
REMARK  165  A    between atoms: _440  and  _443
REMARK  166  A    between atoms: _443  and  _444
REMARK  167  A    between atoms: _449  and  _450
REMARK  168  A    between atoms: _452  and  _454
REMARK  169  A    between atoms: _454  and  _455
REMARK  170  A    between atoms: _457  and  _459
REMARK  171  A    between atoms: _459  and  _460
REMARK  172  A    between atoms: _459  and  _462
REMARK  173  A    between atoms: _462  and  _463
REMARK  174  A    between atoms: _463  and  _464
REMARK  175  A    between atoms: _464  and  _465
REMARK  176  A    between atoms: _474  and  _476
REMARK  177  A    between atoms: _476  and  _477
REMARK  178  A    between atoms: _476  and  _479
REMARK  179  A    between atoms: _479  and  _480
REMARK  180  A    between atoms: _483  and  _485
REMARK  181  A    between atoms: _485  and  _486
REMARK  182  A    between atoms: _485  and  _488
REMARK  183  A    between atoms: _488  and  _489
REMARK  184  A    between atoms: _492  and  _494
REMARK  185  A    between atoms: _494  and  _495
REMARK  186  A    between atoms: _494  and  _497
REMARK  187  A    between atoms: _497  and  _498
REMARK  188  A    between atoms: _501  and  _503
REMARK  189  A    between atoms: _503  and  _504
REMARK  190  A    between atoms: _503  and  _506
REMARK  191  A    between atoms: _506  and  _507
REMARK  192  A    between atoms: _507  and  _508
REMARK  193  A    between atoms: _508  and  _509
REMARK  194  A    between atoms: _518  and  _520
REMARK  195  A    between atoms: _520  and  _521
REMARK  196  A    between atoms: _520  and  _523
REMARK  197  A    between atoms: _523  and  _524
REMARK  198  A    between atoms: _527  and  _529
REMARK  199  A    between atoms: _529  and  _530
REMARK  200  A    between atoms: _533  and  _535
REMARK  201  A    between atoms: _535  and  _536
REMARK  202  A    between atoms: _535  and  _538
REMARK  203  A    between atoms: _538  and  _539
REMARK  204  A    between atoms: _541  and  _543
REMARK  205  A    between atoms: _543  and  _544
REMARK  206  A    between atoms: _543  and  _546
REMARK  207  A    between atoms: _546  and  _547
REMARK  208  A    between atoms: _547  and  _548
REMARK  209  A    between atoms: _550  and  _552
REMARK  210  A    between atoms: _552  and  _553
REMARK  211  A    between atoms: _552  and  _555
REMARK  212  A    between atoms: _555  and  _556
REMARK  213  A    between atoms: _562  and  _564
REMARK  214  A    between atoms: _564  and  _565
REMARK  215  A    between atoms: _564  and  _567
REMARK  216  A    between atoms: _567  and  _568
REMARK  217  A    between atoms: _578  and  _580
REMARK  218  A    between atoms: _580  and  _581
REMARK  219  A    between atoms: _580  and  _583
REMARK  220  A    between atoms: _583  and  _584
REMARK  221  A    between atoms: _589  and  _591
REMARK  222  A    between atoms: _591  and  _592
REMARK  223  A    between atoms: _591  and  _594
REMARK  224  A    between atoms: _594  and  _595
REMARK  225  A    between atoms: _595  and  _596
REMARK                            x       y       z     vdW  Elec       q    Type
REMARK                         _______ _______ _______ _____ _____    ______ ____
ROOT
ATOM      1  O   HOH     1      10.440  43.371 101.599  0.00  0.00    +0.000 OA
ENDROOT
TORSDOF 0
REMARK  Name = ../refined-set-2016/1ur9/1ur9_pocket.pdb
REMARK  225 active torsions:
REMARK  status: ('A' for Active; 'I' for Inactive)
REMARK    1  A    between atoms: _1  and  _3
REMARK    2  A    between atoms: _3  and  _4
REMARK    3  A    between atoms: _3  and  _6
REMARK    4  A    between atoms: _6  and  _7
REMARK    5  A    between atoms: _12  and  _13
REMARK    6  A    between atoms: _15  and  _17
REMARK    7  A    between atoms: _17  and  _18
REMARK    8  A    between atoms: _17  and  _20
REMARK    9  A    between atoms: _20  and  _21
REMARK   10  A    between atoms: _28  and  _29
REMARK   11  A    between atoms: _34  and  _36
REMARK   12  A    between atoms: _36  and  _37
REMARK   13  A    between atoms: _36  and  _39
REMARK   14  A    between atoms: _39  and  _40
REMARK   15  A    between atoms: _45  and  _47
REMARK   16  A    between atoms: _47  and  _48
REMARK   17  A    between atoms: _47  and  _50
REMARK   18  A    between atoms: _50  and  _51
REMARK   19  A    between atoms: _53  and  _55
REMARK   20  A    between atoms: _55  and  _56
REMARK   21  A    between atoms: _55  and  _58
REMARK   22  A    between atoms: _58  and  _59
REMARK   23  A    between atoms: _65  and  _67
REMARK   24  A    between atoms: _67  and  _68
REMARK   25  A    between atoms: _67  and  _70
REMARK   26  A    between atoms: _70  and  _71
REMARK   27  A    between atoms: _73  and  _75
REMARK   28  A    between atoms: _75  and  _76
REMARK   29  A    between atoms: _78  and  _80
REMARK   30  A    between atoms: _80  and  _81
REMARK   31  A    between atoms: _83  and  _85
REMARK   32  A    between atoms: _85  and  _86
REMARK   33  A    between atoms: _85  and  _88
REMARK   34  A    between atoms: _88  and  _89
REMARK   35  A    between atoms: _99  and  _101
REMARK   36  A    between atoms: _101  and  _102
REMARK   37  A    between atoms: _101  and  _104
REMARK   38  A    between atoms: _104  and  _105
REMARK   39  A    between atoms: _110  and  _111
REMARK   40  A    between atoms: _113  and  _115
REMARK   41  A    between atoms: _115  and  _116
REMARK   42  A    between atoms: _115  and  _118
REMARK   43  A    between atoms: _118  and  _119
REMARK   44  A    between atoms: _124  and  _125
REMARK   45  A    between atoms: _127  and  _129
REMARK   46  A    between atoms: _129  and  _130
REMARK   47  A    between atoms: _129  and  _132
REMARK   48  A    between atoms: _132  and  _133
REMARK   49  A    between atoms: _135  and  _137
REMARK   50  A    between atoms: _137  and  _138
REMARK   51  A    between atoms: _137  and  _140
REMARK   52  A    between atoms: _140  and  _141
REMARK   53  A    between atoms: _146  and  _148
REMARK   54  A    between atoms: _148  and  _149
REMARK   55  A    between atoms: _148  and  _151
REMARK   56  A    between atoms: _151  and  _152
REMARK   57  A    between atoms: _155  and  _157
REMARK   58  A    between atoms: _157  and  _158
REMARK   59  A    between atoms: _157  and  _160
REMARK   60  A    between atoms: _160  and  _161
REMARK   61  A    between atoms: _164  and  _166
REMARK   62  A    between atoms: _166  and  _167
REMARK   63  A    between atoms: _166  and  _169
REMARK   64  A    between atoms: _169  and  _170
REMARK   65  A    between atoms: _175  and  _177
REMARK   66  A    between atoms: _177  and  _178
REMARK   67  A    between atoms: _177  and  _180
REMARK   68  A    between atoms: _180  and  _181
REMARK   69  A    between atoms: _191  and  _193
REMARK   70  A    between atoms: _193  and  _194
REMARK   71  A    between atoms: _193  and  _196
REMARK   72  A    between atoms: _196  and  _197
REMARK   73  A    between atoms: _197  and  _198
REMARK   74  A    between atoms: _201  and  _203
REMARK   75  A    between atoms: _203  and  _204
REMARK   76  A    between atoms: _203  and  _206
REMARK   77  A    between atoms: _206  and  _207
REMARK   78  A    between atoms: _212  and  _213
REMARK   79  A    between atoms: _215  and  _217
REMARK   80  A    between atoms: _217  and  _218
REMARK   81  A    between atoms: _217  and  _220
REMARK   82  A    between atoms: _220  and  _221
REMARK   83  A    between atoms: _224  and  _226
REMARK   84  A    between atoms: _226  and  _227
REMARK   85  A    between atoms: _230  and  _232
REMARK   86  A    between atoms: _232  and  _233
REMARK   87  A    between atoms: _235  and  _237
REMARK   88  A    between atoms: _237  and  _238
REMARK   89  A    between atoms: _241  and  _243
REMARK   90  A    between atoms: _243  and  _244
REMARK   91  A    between atoms: _246  and  _248
REMARK   92  A    between atoms: _248  and  _249
REMARK   93  A    between atoms: _251  and  _253
REMARK   94  A    between atoms: _253  and  _254
REMARK   95  A    between atoms: _253  and  _256
REMARK   96  A    between atoms: _256  and  _257
REMARK   97  A    between atoms: _263  and  _265
REMARK   98  A    between atoms: _265  and  _266
REMARK   99  A    between atoms: _265  and  _268
REMARK  100  A    between atoms: _268  and  _269
REMARK  101  A    between atoms: _275  and  _277
REMARK  102  A    between atoms: _277  and  _278
REMARK  103  A    between atoms: _277  and  _280
REMARK  104  A    between atoms: _280  and  _281
REMARK  105  A    between atoms: _281  and  _282
REMARK  106  A    between atoms: _282  and  _283
REMARK  107  A    between atoms: _292  and  _294
REMARK  108  A    between atoms: _294  and  _295
REMARK  109  A    between atoms: _294  and  _297
REMARK  110  A    between atoms: _297  and  _298
REMARK  111  A    between atoms: _303  and  _305
REMARK  112  A    between atoms: _305  and  _306
REMARK  113  A    between atoms: _305  and  _308
REMARK  114  A    between atoms: _308  and  _309
REMARK  115  A    between atoms: _312  and  _314
REMARK  116  A    between atoms: _314  and  _315
REMARK  117  A    between atoms: _314  and  _317
REMARK  118  A    between atoms: _317  and  _318
REMARK  119  A    between atoms: _318  and  _319
REMARK  120  A    between atoms: _321  and  _323
REMARK  121  A    between atoms: _323  and  _324
REMARK  122  A    between atoms: _323  and  _326
REMARK  123  A    between atoms: _326  and  _327
REMARK  124  A    between atoms: _330  and  _332
REMARK  125  A    between atoms: _332  and  _333
REMARK  126  A    between atoms: _332  and  _335
REMARK  127  A    between atoms: _335  and  _336
REMARK  128  A    between atoms: _341  and  _342
REMARK  129  A    between atoms: _344  and  _346
REMARK  130  A    between atoms: _346  and  _347
REMARK  131  A    between atoms: _346  and  _349
REMARK  132  A    between atoms: _349  and  _350
REMARK  133  A    between atoms: _353  and  _355
REMARK  134  A    between atoms: _355  and  _356
REMARK  135  A    between atoms: _355  and  _358
REMARK  136  A    between atoms: _358  and  _359
REMARK  137  A    between atoms: _362  and  _364
REMARK  138  A    between atoms: _364  and  _365
REMARK  139  A    between atoms: _368  and  _370
REMARK  140  A    between atoms: _370  and  _371
REMARK  141  A    between atoms: _373  and  _375
REMARK  142  A    between atoms: _375  and  _376
REMARK  143  A    between atoms: _375  and  _378
REMARK  144  A    between atoms: _378  and  _379
REMARK  145  A    between atoms: _389  and  _391
REMARK  146  A    between atoms: _391  and  _392
REMARK  147  A    between atoms: _391  and  _394
REMARK  148  A    between atoms: _394  and  _395
REMARK  149  A    between atoms: _395  and  _396
REMARK  150  A    between atoms: _399  and  _401
REMARK  151  A    between atoms: _401  and  _402
REMARK  152  A    between atoms: _401  and  _404
REMARK  153  A    between atoms: _404  and  _405
REMARK  154  A    between atoms: _405  and  _406
REMARK  155  A    between atoms: _411  and  _413
REMARK  156  A    between atoms: _413  and  _414
REMARK  157  A    between atoms: _413  and  _416
REMARK  158  A    between atoms: _420  and  _421
REMARK  159  A    between atoms: _426  and  _428
REMARK  160  A    between atoms: _428  and  _429
REMARK  161  A    between atoms: _428  and  _431
REMARK  162  A    between atoms: _431  and  _432
REMARK  163  A    between atoms: _438  and  _440
REMARK  164  A    between atoms: _440  and  _441
REMARK  165  A    between atoms: _440  and  _443
REMARK  166  A    between atoms: _443  and  _444
REMARK  167  A    between atoms: _449  and  _450
REMARK  168  A    between atoms: _452  and  _454
REMARK  169  A    between atoms: _454  and  _455
REMARK  170  A    between atoms: _457  and  _459
REMARK  171  A    between atoms: _459  and  _460
REMARK  172  A    between atoms: _459  and  _462
REMARK  173  A    between atoms: _462  and  _463
REMARK  174  A    between atoms: _463  and  _464
REMARK  175  A    between atoms: _464  and  _465
REMARK  176  A    between atoms: _474  and  _476
REMARK  177  A    between atoms: _476  and  _477
REMARK  178  A    between atoms: _476  and  _479
REMARK  179  A    between atoms: _479  and  _480
REMARK  180  A    between atoms: _483  and  _485
REMARK  181  A    between atoms: _485  and  _486
REMARK  182  A    between atoms: _485  and  _488
REMARK  183  A    between atoms: _488  and  _489
REMARK  184  A    between atoms: _492  and  _494
REMARK  185  A    between atoms: _494  and  _495
REMARK  186  A    between atoms: _494  and  _497
REMARK  187  A    between atoms: _497  and  _498
REMARK  188  A    between atoms: _501  and  _503
REMARK  189  A    between atoms: _503  and  _504
REMARK  190  A    between atoms: _503  and  _506
REMARK  191  A    between atoms: _506  and  _507
REMARK  192  A    between atoms: _507  and  _508
REMARK  193  A    between atoms: _508  and  _509
REMARK  194  A    between atoms: _518  and  _520
REMARK  195  A    between atoms: _520  and  _521
REMARK  196  A    between atoms: _520  and  _523
REMARK  197  A    between atoms: _523  and  _524
REMARK  198  A    between atoms: _527  and  _529
REMARK  199  A    between atoms: _529  and  _530
REMARK  200  A    between atoms: _533  and  _535
REMARK  201  A    between atoms: _535  and  _536
REMARK  202  A    between atoms: _535  and  _538
REMARK  203  A    between atoms: _538  and  _539
REMARK  204  A    between atoms: _541  and  _543
REMARK  205  A    between atoms: _543  and  _544
REMARK  206  A    between atoms: _543  and  _546
REMARK  207  A    between atoms: _546  and  _547
REMARK  208  A    between atoms: _547  and  _548
REMARK  209  A    between atoms: _550  and  _552
REMARK  210  A    between atoms: _552  and  _553
REMARK  211  A    between atoms: _552  and  _555
REMARK  212  A    between atoms: _555  and  _556
REMARK  213  A    between atoms: _562  and  _564
REMARK  214  A    between atoms: _564  and  _565
REMARK  215  A    between atoms: _564  and  _567
REMARK  216  A    between atoms: _567  and  _568
REMARK  217  A    between atoms: _578  and  _580
REMARK  218  A    between atoms: _580  and  _581
REMARK  219  A    between atoms: _580  and  _583
REMARK  220  A    between atoms: _583  and  _584
REMARK  221  A    between atoms: _589  and  _591
REMARK  222  A    between atoms: _591  and  _592
REMARK  223  A    between atoms: _591  and  _594
REMARK  224  A    between atoms: _594  and  _595
REMARK  225  A    between atoms: _595  and  _596
REMARK                            x       y       z     vdW  Elec       q    Type
REMARK                         _______ _______ _______ _____ _____    ______ ____
ROOT
ATOM      1  O   HOH     1       7.352  34.478 102.435  0.00  0.00    +0.000 OA
ENDROOT
TORSDOF 0
REMARK  Name = ../refined-set-2016/1ur9/1ur9_pocket.pdb
REMARK  225 active torsions:
REMARK  status: ('A' for Active; 'I' for Inactive)
REMARK    1  A    between atoms: _1  and  _3
REMARK    2  A    between atoms: _3  and  _4
REMARK    3  A    between atoms: _3  and  _6
REMARK    4  A    between atoms: _6  and  _7
REMARK    5  A    between atoms: _12  and  _13
REMARK    6  A    between atoms: _15  and  _17
REMARK    7  A    between atoms: _17  and  _18
REMARK    8  A    between atoms: _17  and  _20
REMARK    9  A    between atoms: _20  and  _21
REMARK   10  A    between atoms: _28  and  _29
REMARK   11  A    between atoms: _34  and  _36
REMARK   12  A    between atoms: _36  and  _37
REMARK   13  A    between atoms: _36  and  _39
REMARK   14  A    between atoms: _39  and  _40
REMARK   15  A    between atoms: _45  and  _47
REMARK   16  A    between atoms: _47  and  _48
REMARK   17  A    between atoms: _47  and  _50
REMARK   18  A    between atoms: _50  and  _51
REMARK   19  A    between atoms: _53  and  _55
REMARK   20  A    between atoms: _55  and  _56
REMARK   21  A    between atoms: _55  and  _58
REMARK   22  A    between atoms: _58  and  _59
REMARK   23  A    between atoms: _65  and  _67
REMARK   24  A    between atoms: _67  and  _68
REMARK   25  A    between atoms: _67  and  _70
REMARK   26  A    between atoms: _70  and  _71
REMARK   27  A    between atoms: _73  and  _75
REMARK   28  A    between atoms: _75  and  _76
REMARK   29  A    between atoms: _78  and  _80
REMARK   30  A    between atoms: _80  and  _81
REMARK   31  A    between atoms: _83  and  _85
REMARK   32  A    between atoms: _85  and  _86
REMARK   33  A    between atoms: _85  and  _88
REMARK   34  A    between atoms: _88  and  _89
REMARK   35  A    between atoms: _99  and  _101
REMARK   36  A    between atoms: _101  and  _102
REMARK   37  A    between atoms: _101  and  _104
REMARK   38  A    between atoms: _104  and  _105
REMARK   39  A    between atoms: _110  and  _111
REMARK   40  A    between atoms: _113  and  _115
REMARK   41  A    between atoms: _115  and  _116
REMARK   42  A    between atoms: _115  and  _118
REMARK   43  A    between atoms: _118  and  _119
REMARK   44  A    between atoms: _124  and  _125
REMARK   45  A    between atoms: _127  and  _129
REMARK   46  A    between atoms: _129  and  _130
REMARK   47  A    between atoms: _129  and  _132
REMARK   48  A    between atoms: _132  and  _133
REMARK   49  A    between atoms: _135  and  _137
REMARK   50  A    between atoms: _137  and  _138
REMARK   51  A    between atoms: _137  and  _140
REMARK   52  A    between atoms: _140  and  _141
REMARK   53  A    between atoms: _146  and  _148
REMARK   54  A    between atoms: _148  and  _149
REMARK   55  A    between atoms: _148  and  _151
REMARK   56  A    between atoms: _151  and  _152
REMARK   57  A    between atoms: _155  and  _157
REMARK   58  A    between atoms: _157  and  _158
REMARK   59  A    between atoms: _157  and  _160
REMARK   60  A    between atoms: _160  and  _161
REMARK   61  A    between atoms: _164  and  _166
REMARK   62  A    between atoms: _166  and  _167
REMARK   63  A    between atoms: _166  and  _169
REMARK   64  A    between atoms: _169  and  _170
REMARK   65  A    between atoms: _175  and  _177
REMARK   66  A    between atoms: _177  and  _178
REMARK   67  A    between atoms: _177  and  _180
REMARK   68  A    between atoms: _180  and  _181
REMARK   69  A    between atoms: _191  and  _193
REMARK   70  A    between atoms: _193  and  _194
REMARK   71  A    between atoms: _193  and  _196
REMARK   72  A    between atoms: _196  and  _197
REMARK   73  A    between atoms: _197  and  _198
REMARK   74  A    between atoms: _201  and  _203
REMARK   75  A    between atoms: _203  and  _204
REMARK   76  A    between atoms: _203  and  _206
REMARK   77  A    between atoms: _206  and  _207
REMARK   78  A    between atoms: _212  and  _213
REMARK   79  A    between atoms: _215  and  _217
REMARK   80  A    between atoms: _217  and  _218
REMARK   81  A    between atoms: _217  and  _220
REMARK   82  A    between atoms: _220  and  _221
REMARK   83  A    between atoms: _224  and  _226
REMARK   84  A    between atoms: _226  and  _227
REMARK   85  A    between atoms: _230  and  _232
REMARK   86  A    between atoms: _232  and  _233
REMARK   87  A    between atoms: _235  and  _237
REMARK   88  A    between atoms: _237  and  _238
REMARK   89  A    between atoms: _241  and  _243
REMARK   90  A    between atoms: _243  and  _244
REMARK   91  A    between atoms: _246  and  _248
REMARK   92  A    between atoms: _248  and  _249
REMARK   93  A    between atoms: _251  and  _253
REMARK   94  A    between atoms: _253  and  _254
REMARK   95  A    between atoms: _253  and  _256
REMARK   96  A    between atoms: _256  and  _257
REMARK   97  A    between atoms: _263  and  _265
REMARK   98  A    between atoms: _265  and  _266
REMARK   99  A    between atoms: _265  and  _268
REMARK  100  A    between atoms: _268  and  _269
REMARK  101  A    between atoms: _275  and  _277
REMARK  102  A    between atoms: _277  and  _278
REMARK  103  A    between atoms: _277  and  _280
REMARK  104  A    between atoms: _280  and  _281
REMARK  105  A    between atoms: _281  and  _282
REMARK  106  A    between atoms: _282  and  _283
REMARK  107  A    between atoms: _292  and  _294
REMARK  108  A    between atoms: _294  and  _295
REMARK  109  A    between atoms: _294  and  _297
REMARK  110  A    between atoms: _297  and  _298
REMARK  111  A    between atoms: _303  and  _305
REMARK  112  A    between atoms: _305  and  _306
REMARK  113  A    between atoms: _305  and  _308
REMARK  114  A    between atoms: _308  and  _309
REMARK  115  A    between atoms: _312  and  _314
REMARK  116  A    between atoms: _314  and  _315
REMARK  117  A    between atoms: _314  and  _317
REMARK  118  A    between atoms: _317  and  _318
REMARK  119  A    between atoms: _318  and  _319
REMARK  120  A    between atoms: _321  and  _323
REMARK  121  A    between atoms: _323  and  _324
REMARK  122  A    between atoms: _323  and  _326
REMARK  123  A    between atoms: _326  and  _327
REMARK  124  A    between atoms: _330  and  _332
REMARK  125  A    between atoms: _332  and  _333
REMARK  126  A    between atoms: _332  and  _335
REMARK  127  A    between atoms: _335  and  _336
REMARK  128  A    between atoms: _341  and  _342
REMARK  129  A    between atoms: _344  and  _346
REMARK  130  A    between atoms: _346  and  _347
REMARK  131  A    between atoms: _346  and  _349
REMARK  132  A    between atoms: _349  and  _350
REMARK  133  A    between atoms: _353  and  _355
REMARK  134  A    between atoms: _355  and  _356
REMARK  135  A    between atoms: _355  and  _358
REMARK  136  A    between atoms: _358  and  _359
REMARK  137  A    between atoms: _362  and  _364
REMARK  138  A    between atoms: _364  and  _365
REMARK  139  A    between atoms: _368  and  _370
REMARK  140  A    between atoms: _370  and  _371
REMARK  141  A    between atoms: _373  and  _375
REMARK  142  A    between atoms: _375  and  _376
REMARK  143  A    between atoms: _375  and  _378
REMARK  144  A    between atoms: _378  and  _379
REMARK  145  A    between atoms: _389  and  _391
REMARK  146  A    between atoms: _391  and  _392
REMARK  147  A    between atoms: _391  and  _394
REMARK  148  A    between atoms: _394  and  _395
REMARK  149  A    between atoms: _395  and  _396
REMARK  150  A    between atoms: _399  and  _401
REMARK  151  A    between atoms: _401  and  _402
REMARK  152  A    between atoms: _401  and  _404
REMARK  153  A    between atoms: _404  and  _405
REMARK  154  A    between atoms: _405  and  _406
REMARK  155  A    between atoms: _411  and  _413
REMARK  156  A    between atoms: _413  and  _414
REMARK  157  A    between atoms: _413  and  _416
REMARK  158  A    between atoms: _420  and  _421
REMARK  159  A    between atoms: _426  and  _428
REMARK  160  A    between atoms: _428  and  _429
REMARK  161  A    between atoms: _428  and  _431
REMARK  162  A    between atoms: _431  and  _432
REMARK  163  A    between atoms: _438  and  _440
REMARK  164  A    between atoms: _440  and  _441
REMARK  165  A    between atoms: _440  and  _443
REMARK  166  A    between atoms: _443  and  _444
REMARK  167  A    between atoms: _449  and  _450
REMARK  168  A    between atoms: _452  and  _454
REMARK  169  A    between atoms: _454  and  _455
REMARK  170  A    between atoms: _457  and  _459
REMARK  171  A    between atoms: _459  and  _460
REMARK  172  A    between atoms: _459  and  _462
REMARK  173  A    between atoms: _462  and  _463
REMARK  174  A    between atoms: _463  and  _464
REMARK  175  A    between atoms: _464  and  _465
REMARK  176  A    between atoms: _474  and  _476
REMARK  177  A    between atoms: _476  and  _477
REMARK  178  A    between atoms: _476  and  _479
REMARK  179  A    between atoms: _479  and  _480
REMARK  180  A    between atoms: _483  and  _485
REMARK  181  A    between atoms: _485  and  _486
REMARK  182  A    between atoms: _485  and  _488
REMARK  183  A    between atoms: _488  and  _489
REMARK  184  A    between atoms: _492  and  _494
REMARK  185  A    between atoms: _494  and  _495
REMARK  186  A    between atoms: _494  and  _497
REMARK  187  A    between atoms: _497  and  _498
REMARK  188  A    between atoms: _501  and  _503
REMARK  189  A    between atoms: _503  and  _504
REMARK  190  A    between atoms: _503  and  _506
REMARK  191  A    between atoms: _506  and  _507
REMARK  192  A    between atoms: _507  and  _508
REMARK  193  A    between atoms: _508  and  _509
REMARK  194  A    between atoms: _518  and  _520
REMARK  195  A    between atoms: _520  and  _521
REMARK  196  A    between atoms: _520  and  _523
REMARK  197  A    between atoms: _523  and  _524
REMARK  198  A    between atoms: _527  and  _529
REMARK  199  A    between atoms: _529  and  _530
REMARK  200  A    between atoms: _533  and  _535
REMARK  201  A    between atoms: _535  and  _536
REMARK  202  A    between atoms: _535  and  _538
REMARK  203  A    between atoms: _538  and  _539
REMARK  204  A    between atoms: _541  and  _543
REMARK  205  A    between atoms: _543  and  _544
REMARK  206  A    between atoms: _543  and  _546
REMARK  207  A    between atoms: _546  and  _547
REMARK  208  A    between atoms: _547  and  _548
REMARK  209  A    between atoms: _550  and  _552
REMARK  210  A    between atoms: _552  and  _553
REMARK  211  A    between atoms: _552  and  _555
REMARK  212  A    between atoms: _555  and  _556
REMARK  213  A    between atoms: _562  and  _564
REMARK  214  A    between atoms: _564  and  _565
REMARK  215  A    between atoms: _564  and  _567
REMARK  216  A    between atoms: _567  and  _568
REMARK  217  A    between atoms: _578  and  _580
REMARK  218  A    between atoms: _580  and  _581
REMARK  219  A    between atoms: _580  and  _583
REMARK  220  A    between atoms: _583  and  _584
REMARK  221  A    between atoms: _589  and  _591
REMARK  222  A    between atoms: _591  and  _592
REMARK  223  A    between atoms: _591  and  _594
REMARK  224  A    between atoms: _594  and  _595
REMARK  225  A    between atoms: _595  and  _596
REMARK                            x       y       z     vdW  Elec       q    Type
REMARK                         _______ _______ _______ _____ _____    ______ ____
ROOT
ATOM      1  O   HOH     1      14.241  40.737  90.324  0.00  0.00    +0.000 OA
ENDROOT
TORSDOF 0
REMARK  Name = ../refined-set-2016/1ur9/1ur9_pocket.pdb
REMARK  225 active torsions:
REMARK  status: ('A' for Active; 'I' for Inactive)
REMARK    1  A    between atoms: _1  and  _3
REMARK    2  A    between atoms: _3  and  _4
REMARK    3  A    between atoms: _3  and  _6
REMARK    4  A    between atoms: _6  and  _7
REMARK    5  A    between atoms: _12  and  _13
REMARK    6  A    between atoms: _15  and  _17
REMARK    7  A    between atoms: _17  and  _18
REMARK    8  A    between atoms: _17  and  _20
REMARK    9  A    between atoms: _20  and  _21
REMARK   10  A    between atoms: _28  and  _29
REMARK   11  A    between atoms: _34  and  _36
REMARK   12  A    between atoms: _36  and  _37
REMARK   13  A    between atoms: _36  and  _39
REMARK   14  A    between atoms: _39  and  _40
REMARK   15  A    between atoms: _45  and  _47
REMARK   16  A    between atoms: _47  and  _48
REMARK   17  A    between atoms: _47  and  _50
REMARK   18  A    between atoms: _50  and  _51
REMARK   19  A    between atoms: _53  and  _55
REMARK   20  A    between atoms: _55  and  _56
REMARK   21  A    between atoms: _55  and  _58
REMARK   22  A    between atoms: _58  and  _59
REMARK   23  A    between atoms: _65  and  _67
REMARK   24  A    between atoms: _67  and  _68
REMARK   25  A    between atoms: _67  and  _70
REMARK   26  A    between atoms: _70  and  _71
REMARK   27  A    between atoms: _73  and  _75
REMARK   28  A    between atoms: _75  and  _76
REMARK   29  A    between atoms: _78  and  _80
REMARK   30  A    between atoms: _80  and  _81
REMARK   31  A    between atoms: _83  and  _85
REMARK   32  A    between atoms: _85  and  _86
REMARK   33  A    between atoms: _85  and  _88
REMARK   34  A    between atoms: _88  and  _89
REMARK   35  A    between atoms: _99  and  _101
REMARK   36  A    between atoms: _101  and  _102
REMARK   37  A    between atoms: _101  and  _104
REMARK   38  A    between atoms: _104  and  _105
REMARK   39  A    between atoms: _110  and  _111
REMARK   40  A    between atoms: _113  and  _115
REMARK   41  A    between atoms: _115  and  _116
REMARK   42  A    between atoms: _115  and  _118
REMARK   43  A    between atoms: _118  and  _119
REMARK   44  A    between atoms: _124  and  _125
REMARK   45  A    between atoms: _127  and  _129
REMARK   46  A    between atoms: _129  and  _130
REMARK   47  A    between atoms: _129  and  _132
REMARK   48  A    between atoms: _132  and  _133
REMARK   49  A    between atoms: _135  and  _137
REMARK   50  A    between atoms: _137  and  _138
REMARK   51  A    between atoms: _137  and  _140
REMARK   52  A    between atoms: _140  and  _141
REMARK   53  A    between atoms: _146  and  _148
REMARK   54  A    between atoms: _148  and  _149
REMARK   55  A    between atoms: _148  and  _151
REMARK   56  A    between atoms: _151  and  _152
REMARK   57  A    between atoms: _155  and  _157
REMARK   58  A    between atoms: _157  and  _158
REMARK   59  A    between atoms: _157  and  _160
REMARK   60  A    between atoms: _160  and  _161
REMARK   61  A    between atoms: _164  and  _166
REMARK   62  A    between atoms: _166  and  _167
REMARK   63  A    between atoms: _166  and  _169
REMARK   64  A    between atoms: _169  and  _170
REMARK   65  A    between atoms: _175  and  _177
REMARK   66  A    between atoms: _177  and  _178
REMARK   67  A    between atoms: _177  and  _180
REMARK   68  A    between atoms: _180  and  _181
REMARK   69  A    between atoms: _191  and  _193
REMARK   70  A    between atoms: _193  and  _194
REMARK   71  A    between atoms: _193  and  _196
REMARK   72  A    between atoms: _196  and  _197
REMARK   73  A    between atoms: _197  and  _198
REMARK   74  A    between atoms: _201  and  _203
REMARK   75  A    between atoms: _203  and  _204
REMARK   76  A    between atoms: _203  and  _206
REMARK   77  A    between atoms: _206  and  _207
REMARK   78  A    between atoms: _212  and  _213
REMARK   79  A    between atoms: _215  and  _217
REMARK   80  A    between atoms: _217  and  _218
REMARK   81  A    between atoms: _217  and  _220
REMARK   82  A    between atoms: _220  and  _221
REMARK   83  A    between atoms: _224  and  _226
REMARK   84  A    between atoms: _226  and  _227
REMARK   85  A    between atoms: _230  and  _232
REMARK   86  A    between atoms: _232  and  _233
REMARK   87  A    between atoms: _235  and  _237
REMARK   88  A    between atoms: _237  and  _238
REMARK   89  A    between atoms: _241  and  _243
REMARK   90  A    between atoms: _243  and  _244
REMARK   91  A    between atoms: _246  and  _248
REMARK   92  A    between atoms: _248  and  _249
REMARK   93  A    between atoms: _251  and  _253
REMARK   94  A    between atoms: _253  and  _254
REMARK   95  A    between atoms: _253  and  _256
REMARK   96  A    between atoms: _256  and  _257
REMARK   97  A    between atoms: _263  and  _265
REMARK   98  A    between atoms: _265  and  _266
REMARK   99  A    between atoms: _265  and  _268
REMARK  100  A    between atoms: _268  and  _269
REMARK  101  A    between atoms: _275  and  _277
REMARK  102  A    between atoms: _277  and  _278
REMARK  103  A    between atoms: _277  and  _280
REMARK  104  A    between atoms: _280  and  _281
REMARK  105  A    between atoms: _281  and  _282
REMARK  106  A    between atoms: _282  and  _283
REMARK  107  A    between atoms: _292  and  _294
REMARK  108  A    between atoms: _294  and  _295
REMARK  109  A    between atoms: _294  and  _297
REMARK  110  A    between atoms: _297  and  _298
REMARK  111  A    between atoms: _303  and  _305
REMARK  112  A    between atoms: _305  and  _306
REMARK  113  A    between atoms: _305  and  _308
REMARK  114  A    between atoms: _308  and  _309
REMARK  115  A    between atoms: _312  and  _314
REMARK  116  A    between atoms: _314  and  _315
REMARK  117  A    between atoms: _314  and  _317
REMARK  118  A    between atoms: _317  and  _318
REMARK  119  A    between atoms: _318  and  _319
REMARK  120  A    between atoms: _321  and  _323
REMARK  121  A    between atoms: _323  and  _324
REMARK  122  A    between atoms: _323  and  _326
REMARK  123  A    between atoms: _326  and  _327
REMARK  124  A    between atoms: _330  and  _332
REMARK  125  A    between atoms: _332  and  _333
REMARK  126  A    between atoms: _332  and  _335
REMARK  127  A    between atoms: _335  and  _336
REMARK  128  A    between atoms: _341  and  _342
REMARK  129  A    between atoms: _344  and  _346
REMARK  130  A    between atoms: _346  and  _347
REMARK  131  A    between atoms: _346  and  _349
REMARK  132  A    between atoms: _349  and  _350
REMARK  133  A    between atoms: _353  and  _355
REMARK  134  A    between atoms: _355  and  _356
REMARK  135  A    between atoms: _355  and  _358
REMARK  136  A    between atoms: _358  and  _359
REMARK  137  A    between atoms: _362  and  _364
REMARK  138  A    between atoms: _364  and  _365
REMARK  139  A    between atoms: _368  and  _370
REMARK  140  A    between atoms: _370  and  _371
REMARK  141  A    between atoms: _373  and  _375
REMARK  142  A    between atoms: _375  and  _376
REMARK  143  A    between atoms: _375  and  _378
REMARK  144  A    between atoms: _378  and  _379
REMARK  145  A    between atoms: _389  and  _391
REMARK  146  A    between atoms: _391  and  _392
REMARK  147  A    between atoms: _391  and  _394
REMARK  148  A    between atoms: _394  and  _395
REMARK  149  A    between atoms: _395  and  _396
REMARK  150  A    between atoms: _399  and  _401
REMARK  151  A    between atoms: _401  and  _402
REMARK  152  A    between atoms: _401  and  _404
REMARK  153  A    between atoms: _404  and  _405
REMARK  154  A    between atoms: _405  and  _406
REMARK  155  A    between atoms: _411  and  _413
REMARK  156  A    between atoms: _413  and  _414
REMARK  157  A    between atoms: _413  and  _416
REMARK  158  A    between atoms: _420  and  _421
REMARK  159  A    between atoms: _426  and  _428
REMARK  160  A    between atoms: _428  and  _429
REMARK  161  A    between atoms: _428  and  _431
REMARK  162  A    between atoms: _431  and  _432
REMARK  163  A    between atoms: _438  and  _440
REMARK  164  A    between atoms: _440  and  _441
REMARK  165  A    between atoms: _440  and  _443
REMARK  166  A    between atoms: _443  and  _444
REMARK  167  A    between atoms: _449  and  _450
REMARK  168  A    between atoms: _452  and  _454
REMARK  169  A    between atoms: _454  and  _455
REMARK  170  A    between atoms: _457  and  _459
REMARK  171  A    between atoms: _459  and  _460
REMARK  172  A    between atoms: _459  and  _462
REMARK  173  A    between atoms: _462  and  _463
REMARK  174  A    between atoms: _463  and  _464
REMARK  175  A    between atoms: _464  and  _465
REMARK  176  A    between atoms: _474  and  _476
REMARK  177  A    between atoms: _476  and  _477
REMARK  178  A    between atoms: _476  and  _479
REMARK  179  A    between atoms: _479  and  _480
REMARK  180  A    between atoms: _483  and  _485
REMARK  181  A    between atoms: _485  and  _486
REMARK  182  A    between atoms: _485  and  _488
REMARK  183  A    between atoms: _488  and  _489
REMARK  184  A    between atoms: _492  and  _494
REMARK  185  A    between atoms: _494  and  _495
REMARK  186  A    between atoms: _494  and  _497
REMARK  187  A    between atoms: _497  and  _498
REMARK  188  A    between atoms: _501  and  _503
REMARK  189  A    between atoms: _503  and  _504
REMARK  190  A    between atoms: _503  and  _506
REMARK  191  A    between atoms: _506  and  _507
REMARK  192  A    between atoms: _507  and  _508
REMARK  193  A    between atoms: _508  and  _509
REMARK  194  A    between atoms: _518  and  _520
REMARK  195  A    between atoms: _520  and  _521
REMARK  196  A    between atoms: _520  and  _523
REMARK  197  A    between atoms: _523  and  _524
REMARK  198  A    between atoms: _527  and  _529
REMARK  199  A    between atoms: _529  and  _530
REMARK  200  A    between atoms: _533  and  _535
REMARK  201  A    between atoms: _535  and  _536
REMARK  202  A    between atoms: _535  and  _538
REMARK  203  A    between atoms: _538  and  _539
REMARK  204  A    between atoms: _541  and  _543
REMARK  205  A    between atoms: _543  and  _544
REMARK  206  A    between atoms: _543  and  _546
REMARK  207  A    between atoms: _546  and  _547
REMARK  208  A    between atoms: _547  and  _548
REMARK  209  A    between atoms: _550  and  _552
REMARK  210  A    between atoms: _552  and  _553
REMARK  211  A    between atoms: _552  and  _555
REMARK  212  A    between atoms: _555  and  _556
REMARK  213  A    between atoms: _562  and  _564
REMARK  214  A    between atoms: _564  and  _565
REMARK  215  A    between atoms: _564  and  _567
REMARK  216  A    between atoms: _567  and  _568
REMARK  217  A    between atoms: _578  and  _580
REMARK  218  A    between atoms: _580  and  _581
REMARK  219  A    between atoms: _580  and  _583
REMARK  220  A    between atoms: _583  and  _584
REMARK  221  A    between atoms: _589  and  _591
REMARK  222  A    between atoms: _591  and  _592
REMARK  223  A    between atoms: _591  and  _594
REMARK  224  A    between atoms: _594  and  _595
REMARK  225  A    between atoms: _595  and  _596
REMARK                            x       y       z     vdW  Elec       q    Type
REMARK                         _______ _______ _______ _____ _____    ______ ____
ROOT
ATOM      1  O   HOH     1      14.723  43.933  91.537  0.00  0.00    +0.000 OA
ENDROOT
TORSDOF 0
REMARK  Name = ../refined-set-2016/1ur9/1ur9_pocket.pdb
REMARK  225 active torsions:
REMARK  status: ('A' for Active; 'I' for Inactive)
REMARK    1  A    between atoms: _1  and  _3
REMARK    2  A    between atoms: _3  and  _4
REMARK    3  A    between atoms: _3  and  _6
REMARK    4  A    between atoms: _6  and  _7
REMARK    5  A    between atoms: _12  and  _13
REMARK    6  A    between atoms: _15  and  _17
REMARK    7  A    between atoms: _17  and  _18
REMARK    8  A    between atoms: _17  and  _20
REMARK    9  A    between atoms: _20  and  _21
REMARK   10  A    between atoms: _28  and  _29
REMARK   11  A    between atoms: _34  and  _36
REMARK   12  A    between atoms: _36  and  _37
REMARK   13  A    between atoms: _36  and  _39
REMARK   14  A    between atoms: _39  and  _40
REMARK   15  A    between atoms: _45  and  _47
REMARK   16  A    between atoms: _47  and  _48
REMARK   17  A    between atoms: _47  and  _50
REMARK   18  A    between atoms: _50  and  _51
REMARK   19  A    between atoms: _53  and  _55
REMARK   20  A    between atoms: _55  and  _56
REMARK   21  A    between atoms: _55  and  _58
REMARK   22  A    between atoms: _58  and  _59
REMARK   23  A    between atoms: _65  and  _67
REMARK   24  A    between atoms: _67  and  _68
REMARK   25  A    between atoms: _67  and  _70
REMARK   26  A    between atoms: _70  and  _71
REMARK   27  A    between atoms: _73  and  _75
REMARK   28  A    between atoms: _75  and  _76
REMARK   29  A    between atoms: _78  and  _80
REMARK   30  A    between atoms: _80  and  _81
REMARK   31  A    between atoms: _83  and  _85
REMARK   32  A    between atoms: _85  and  _86
REMARK   33  A    between atoms: _85  and  _88
REMARK   34  A    between atoms: _88  and  _89
REMARK   35  A    between atoms: _99  and  _101
REMARK   36  A    between atoms: _101  and  _102
REMARK   37  A    between atoms: _101  and  _104
REMARK   38  A    between atoms: _104  and  _105
REMARK   39  A    between atoms: _110  and  _111
REMARK   40  A    between atoms: _113  and  _115
REMARK   41  A    between atoms: _115  and  _116
REMARK   42  A    between atoms: _115  and  _118
REMARK   43  A    between atoms: _118  and  _119
REMARK   44  A    between atoms: _124  and  _125
REMARK   45  A    between atoms: _127  and  _129
REMARK   46  A    between atoms: _129  and  _130
REMARK   47  A    between atoms: _129  and  _132
REMARK   48  A    between atoms: _132  and  _133
REMARK   49  A    between atoms: _135  and  _137
REMARK   50  A    between atoms: _137  and  _138
REMARK   51  A    between atoms: _137  and  _140
REMARK   52  A    between atoms: _140  and  _141
REMARK   53  A    between atoms: _146  and  _148
REMARK   54  A    between atoms: _148  and  _149
REMARK   55  A    between atoms: _148  and  _151
REMARK   56  A    between atoms: _151  and  _152
REMARK   57  A    between atoms: _155  and  _157
REMARK   58  A    between atoms: _157  and  _158
REMARK   59  A    between atoms: _157  and  _160
REMARK   60  A    between atoms: _160  and  _161
REMARK   61  A    between atoms: _164  and  _166
REMARK   62  A    between atoms: _166  and  _167
REMARK   63  A    between atoms: _166  and  _169
REMARK   64  A    between atoms: _169  and  _170
REMARK   65  A    between atoms: _175  and  _177
REMARK   66  A    between atoms: _177  and  _178
REMARK   67  A    between atoms: _177  and  _180
REMARK   68  A    between atoms: _180  and  _181
REMARK   69  A    between atoms: _191  and  _193
REMARK   70  A    between atoms: _193  and  _194
REMARK   71  A    between atoms: _193  and  _196
REMARK   72  A    between atoms: _196  and  _197
REMARK   73  A    between atoms: _197  and  _198
REMARK   74  A    between atoms: _201  and  _203
REMARK   75  A    between atoms: _203  and  _204
REMARK   76  A    between atoms: _203  and  _206
REMARK   77  A    between atoms: _206  and  _207
REMARK   78  A    between atoms: _212  and  _213
REMARK   79  A    between atoms: _215  and  _217
REMARK   80  A    between atoms: _217  and  _218
REMARK   81  A    between atoms: _217  and  _220
REMARK   82  A    between atoms: _220  and  _221
REMARK   83  A    between atoms: _224  and  _226
REMARK   84  A    between atoms: _226  and  _227
REMARK   85  A    between atoms: _230  and  _232
REMARK   86  A    between atoms: _232  and  _233
REMARK   87  A    between atoms: _235  and  _237
REMARK   88  A    between atoms: _237  and  _238
REMARK   89  A    between atoms: _241  and  _243
REMARK   90  A    between atoms: _243  and  _244
REMARK   91  A    between atoms: _246  and  _248
REMARK   92  A    between atoms: _248  and  _249
REMARK   93  A    between atoms: _251  and  _253
REMARK   94  A    between atoms: _253  and  _254
REMARK   95  A    between atoms: _253  and  _256
REMARK   96  A    between atoms: _256  and  _257
REMARK   97  A    between atoms: _263  and  _265
REMARK   98  A    between atoms: _265  and  _266
REMARK   99  A    between atoms: _265  and  _268
REMARK  100  A    between atoms: _268  and  _269
REMARK  101  A    between atoms: _275  and  _277
REMARK  102  A    between atoms: _277  and  _278
REMARK  103  A    between atoms: _277  and  _280
REMARK  104  A    between atoms: _280  and  _281
REMARK  105  A    between atoms: _281  and  _282
REMARK  106  A    between atoms: _282  and  _283
REMARK  107  A    between atoms: _292  and  _294
REMARK  108  A    between atoms: _294  and  _295
REMARK  109  A    between atoms: _294  and  _297
REMARK  110  A    between atoms: _297  and  _298
REMARK  111  A    between atoms: _303  and  _305
REMARK  112  A    between atoms: _305  and  _306
REMARK  113  A    between atoms: _305  and  _308
REMARK  114  A    between atoms: _308  and  _309
REMARK  115  A    between atoms: _312  and  _314
REMARK  116  A    between atoms: _314  and  _315
REMARK  117  A    between atoms: _314  and  _317
REMARK  118  A    between atoms: _317  and  _318
REMARK  119  A    between atoms: _318  and  _319
REMARK  120  A    between atoms: _321  and  _323
REMARK  121  A    between atoms: _323  and  _324
REMARK  122  A    between atoms: _323  and  _326
REMARK  123  A    between atoms: _326  and  _327
REMARK  124  A    between atoms: _330  and  _332
REMARK  125  A    between atoms: _332  and  _333
REMARK  126  A    between atoms: _332  and  _335
REMARK  127  A    between atoms: _335  and  _336
REMARK  128  A    between atoms: _341  and  _342
REMARK  129  A    between atoms: _344  and  _346
REMARK  130  A    between atoms: _346  and  _347
REMARK  131  A    between atoms: _346  and  _349
REMARK  132  A    between atoms: _349  and  _350
REMARK  133  A    between atoms: _353  and  _355
REMARK  134  A    between atoms: _355  and  _356
REMARK  135  A    between atoms: _355  and  _358
REMARK  136  A    between atoms: _358  and  _359
REMARK  137  A    between atoms: _362  and  _364
REMARK  138  A    between atoms: _364  and  _365
REMARK  139  A    between atoms: _368  and  _370
REMARK  140  A    between atoms: _370  and  _371
REMARK  141  A    between atoms: _373  and  _375
REMARK  142  A    between atoms: _375  and  _376
REMARK  143  A    between atoms: _375  and  _378
REMARK  144  A    between atoms: _378  and  _379
REMARK  145  A    between atoms: _389  and  _391
REMARK  146  A    between atoms: _391  and  _392
REMARK  147  A    between atoms: _391  and  _394
REMARK  148  A    between atoms: _394  and  _395
REMARK  149  A    between atoms: _395  and  _396
REMARK  150  A    between atoms: _399  and  _401
REMARK  151  A    between atoms: _401  and  _402
REMARK  152  A    between atoms: _401  and  _404
REMARK  153  A    between atoms: _404  and  _405
REMARK  154  A    between atoms: _405  and  _406
REMARK  155  A    between atoms: _411  and  _413
REMARK  156  A    between atoms: _413  and  _414
REMARK  157  A    between atoms: _413  and  _416
REMARK  158  A    between atoms: _420  and  _421
REMARK  159  A    between atoms: _426  and  _428
REMARK  160  A    between atoms: _428  and  _429
REMARK  161  A    between atoms: _428  and  _431
REMARK  162  A    between atoms: _431  and  _432
REMARK  163  A    between atoms: _438  and  _440
REMARK  164  A    between atoms: _440  and  _441
REMARK  165  A    between atoms: _440  and  _443
REMARK  166  A    between atoms: _443  and  _444
REMARK  167  A    between atoms: _449  and  _450
REMARK  168  A    between atoms: _452  and  _454
REMARK  169  A    between atoms: _454  and  _455
REMARK  170  A    between atoms: _457  and  _459
REMARK  171  A    between atoms: _459  and  _460
REMARK  172  A    between atoms: _459  and  _462
REMARK  173  A    between atoms: _462  and  _463
REMARK  174  A    between atoms: _463  and  _464
REMARK  175  A    between atoms: _464  and  _465
REMARK  176  A    between atoms: _474  and  _476
REMARK  177  A    between atoms: _476  and  _477
REMARK  178  A    between atoms: _476  and  _479
REMARK  179  A    between atoms: _479  and  _480
REMARK  180  A    between atoms: _483  and  _485
REMARK  181  A    between atoms: _485  and  _486
REMARK  182  A    between atoms: _485  and  _488
REMARK  183  A    between atoms: _488  and  _489
REMARK  184  A    between atoms: _492  and  _494
REMARK  185  A    between atoms: _494  and  _495
REMARK  186  A    between atoms: _494  and  _497
REMARK  187  A    between atoms: _497  and  _498
REMARK  188  A    between atoms: _501  and  _503
REMARK  189  A    between atoms: _503  and  _504
REMARK  190  A    between atoms: _503  and  _506
REMARK  191  A    between atoms: _506  and  _507
REMARK  192  A    between atoms: _507  and  _508
REMARK  193  A    between atoms: _508  and  _509
REMARK  194  A    between atoms: _518  and  _520
REMARK  195  A    between atoms: _520  and  _521
REMARK  196  A    between atoms: _520  and  _523
REMARK  197  A    between atoms: _523  and  _524
REMARK  198  A    between atoms: _527  and  _529
REMARK  199  A    between atoms: _529  and  _530
REMARK  200  A    between atoms: _533  and  _535
REMARK  201  A    between atoms: _535  and  _536
REMARK  202  A    between atoms: _535  and  _538
REMARK  203  A    between atoms: _538  and  _539
REMARK  204  A    between atoms: _541  and  _543
REMARK  205  A    between atoms: _543  and  _544
REMARK  206  A    between atoms: _543  and  _546
REMARK  207  A    between atoms: _546  and  _547
REMARK  208  A    between atoms: _547  and  _548
REMARK  209  A    between atoms: _550  and  _552
REMARK  210  A    between atoms: _552  and  _553
REMARK  211  A    between atoms: _552  and  _555
REMARK  212  A    between atoms: _555  and  _556
REMARK  213  A    between atoms: _562  and  _564
REMARK  214  A    between atoms: _564  and  _565
REMARK  215  A    between atoms: _564  and  _567
REMARK  216  A    between atoms: _567  and  _568
REMARK  217  A    between atoms: _578  and  _580
REMARK  218  A    between atoms: _580  and  _581
REMARK  219  A    between atoms: _580  and  _583
REMARK  220  A    between atoms: _583  and  _584
REMARK  221  A    between atoms: _589  and  _591
REMARK  222  A    between atoms: _591  and  _592
REMARK  223  A    between atoms: _591  and  _594
REMARK  224  A    between atoms: _594  and  _595
REMARK  225  A    between atoms: _595  and  _596
REMARK                            x       y       z     vdW  Elec       q    Type
REMARK                         _______ _______ _______ _____ _____    ______ ____
ROOT
ATOM      1  O   HOH     1      16.547  50.654  97.829  0.00  0.00    +0.000 OA
ENDROOT
TORSDOF 0
REMARK  Name = ../refined-set-2016/1ur9/1ur9_pocket.pdb
REMARK  225 active torsions:
REMARK  status: ('A' for Active; 'I' for Inactive)
REMARK    1  A    between atoms: _1  and  _3
REMARK    2  A    between atoms: _3  and  _4
REMARK    3  A    between atoms: _3  and  _6
REMARK    4  A    between atoms: _6  and  _7
REMARK    5  A    between atoms: _12  and  _13
REMARK    6  A    between atoms: _15  and  _17
REMARK    7  A    between atoms: _17  and  _18
REMARK    8  A    between atoms: _17  and  _20
REMARK    9  A    between atoms: _20  and  _21
REMARK   10  A    between atoms: _28  and  _29
REMARK   11  A    between atoms: _34  and  _36
REMARK   12  A    between atoms: _36  and  _37
REMARK   13  A    between atoms: _36  and  _39
REMARK   14  A    between atoms: _39  and  _40
REMARK   15  A    between atoms: _45  and  _47
REMARK   16  A    between atoms: _47  and  _48
REMARK   17  A    between atoms: _47  and  _50
REMARK   18  A    between atoms: _50  and  _51
REMARK   19  A    between atoms: _53  and  _55
REMARK   20  A    between atoms: _55  and  _56
REMARK   21  A    between atoms: _55  and  _58
REMARK   22  A    between atoms: _58  and  _59
REMARK   23  A    between atoms: _65  and  _67
REMARK   24  A    between atoms: _67  and  _68
REMARK   25  A    between atoms: _67  and  _70
REMARK   26  A    between atoms: _70  and  _71
REMARK   27  A    between atoms: _73  and  _75
REMARK   28  A    between atoms: _75  and  _76
REMARK   29  A    between atoms: _78  and  _80
REMARK   30  A    between atoms: _80  and  _81
REMARK   31  A    between atoms: _83  and  _85
REMARK   32  A    between atoms: _85  and  _86
REMARK   33  A    between atoms: _85  and  _88
REMARK   34  A    between atoms: _88  and  _89
REMARK   35  A    between atoms: _99  and  _101
REMARK   36  A    between atoms: _101  and  _102
REMARK   37  A    between atoms: _101  and  _104
REMARK   38  A    between atoms: _104  and  _105
REMARK   39  A    between atoms: _110  and  _111
REMARK   40  A    between atoms: _113  and  _115
REMARK   41  A    between atoms: _115  and  _116
REMARK   42  A    between atoms: _115  and  _118
REMARK   43  A    between atoms: _118  and  _119
REMARK   44  A    between atoms: _124  and  _125
REMARK   45  A    between atoms: _127  and  _129
REMARK   46  A    between atoms: _129  and  _130
REMARK   47  A    between atoms: _129  and  _132
REMARK   48  A    between atoms: _132  and  _133
REMARK   49  A    between atoms: _135  and  _137
REMARK   50  A    between atoms: _137  and  _138
REMARK   51  A    between atoms: _137  and  _140
REMARK   52  A    between atoms: _140  and  _141
REMARK   53  A    between atoms: _146  and  _148
REMARK   54  A    between atoms: _148  and  _149
REMARK   55  A    between atoms: _148  and  _151
REMARK   56  A    between atoms: _151  and  _152
REMARK   57  A    between atoms: _155  and  _157
REMARK   58  A    between atoms: _157  and  _158
REMARK   59  A    between atoms: _157  and  _160
REMARK   60  A    between atoms: _160  and  _161
REMARK   61  A    between atoms: _164  and  _166
REMARK   62  A    between atoms: _166  and  _167
REMARK   63  A    between atoms: _166  and  _169
REMARK   64  A    between atoms: _169  and  _170
REMARK   65  A    between atoms: _175  and  _177
REMARK   66  A    between atoms: _177  and  _178
REMARK   67  A    between atoms: _177  and  _180
REMARK   68  A    between atoms: _180  and  _181
REMARK   69  A    between atoms: _191  and  _193
REMARK   70  A    between atoms: _193  and  _194
REMARK   71  A    between atoms: _193  and  _196
REMARK   72  A    between atoms: _196  and  _197
REMARK   73  A    between atoms: _197  and  _198
REMARK   74  A    between atoms: _201  and  _203
REMARK   75  A    between atoms: _203  and  _204
REMARK   76  A    between atoms: _203  and  _206
REMARK   77  A    between atoms: _206  and  _207
REMARK   78  A    between atoms: _212  and  _213
REMARK   79  A    between atoms: _215  and  _217
REMARK   80  A    between atoms: _217  and  _218
REMARK   81  A    between atoms: _217  and  _220
REMARK   82  A    between atoms: _220  and  _221
REMARK   83  A    between atoms: _224  and  _226
REMARK   84  A    between atoms: _226  and  _227
REMARK   85  A    between atoms: _230  and  _232
REMARK   86  A    between atoms: _232  and  _233
REMARK   87  A    between atoms: _235  and  _237
REMARK   88  A    between atoms: _237  and  _238
REMARK   89  A    between atoms: _241  and  _243
REMARK   90  A    between atoms: _243  and  _244
REMARK   91  A    between atoms: _246  and  _248
REMARK   92  A    between atoms: _248  and  _249
REMARK   93  A    between atoms: _251  and  _253
REMARK   94  A    between atoms: _253  and  _254
REMARK   95  A    between atoms: _253  and  _256
REMARK   96  A    between atoms: _256  and  _257
REMARK   97  A    between atoms: _263  and  _265
REMARK   98  A    between atoms: _265  and  _266
REMARK   99  A    between atoms: _265  and  _268
REMARK  100  A    between atoms: _268  and  _269
REMARK  101  A    between atoms: _275  and  _277
REMARK  102  A    between atoms: _277  and  _278
REMARK  103  A    between atoms: _277  and  _280
REMARK  104  A    between atoms: _280  and  _281
REMARK  105  A    between atoms: _281  and  _282
REMARK  106  A    between atoms: _282  and  _283
REMARK  107  A    between atoms: _292  and  _294
REMARK  108  A    between atoms: _294  and  _295
REMARK  109  A    between atoms: _294  and  _297
REMARK  110  A    between atoms: _297  and  _298
REMARK  111  A    between atoms: _303  and  _305
REMARK  112  A    between atoms: _305  and  _306
REMARK  113  A    between atoms: _305  and  _308
REMARK  114  A    between atoms: _308  and  _309
REMARK  115  A    between atoms: _312  and  _314
REMARK  116  A    between atoms: _314  and  _315
REMARK  117  A    between atoms: _314  and  _317
REMARK  118  A    between atoms: _317  and  _318
REMARK  119  A    between atoms: _318  and  _319
REMARK  120  A    between atoms: _321  and  _323
REMARK  121  A    between atoms: _323  and  _324
REMARK  122  A    between atoms: _323  and  _326
REMARK  123  A    between atoms: _326  and  _327
REMARK  124  A    between atoms: _330  and  _332
REMARK  125  A    between atoms: _332  and  _333
REMARK  126  A    between atoms: _332  and  _335
REMARK  127  A    between atoms: _335  and  _336
REMARK  128  A    between atoms: _341  and  _342
REMARK  129  A    between atoms: _344  and  _346
REMARK  130  A    between atoms: _346  and  _347
REMARK  131  A    between atoms: _346  and  _349
REMARK  132  A    between atoms: _349  and  _350
REMARK  133  A    between atoms: _353  and  _355
REMARK  134  A    between atoms: _355  and  _356
REMARK  135  A    between atoms: _355  and  _358
REMARK  136  A    between atoms: _358  and  _359
REMARK  137  A    between atoms: _362  and  _364
REMARK  138  A    between atoms: _364  and  _365
REMARK  139  A    between atoms: _368  and  _370
REMARK  140  A    between atoms: _370  and  _371
REMARK  141  A    between atoms: _373  and  _375
REMARK  142  A    between atoms: _375  and  _376
REMARK  143  A    between atoms: _375  and  _378
REMARK  144  A    between atoms: _378  and  _379
REMARK  145  A    between atoms: _389  and  _391
REMARK  146  A    between atoms: _391  and  _392
REMARK  147  A    between atoms: _391  and  _394
REMARK  148  A    between atoms: _394  and  _395
REMARK  149  A    between atoms: _395  and  _396
REMARK  150  A    between atoms: _399  and  _401
REMARK  151  A    between atoms: _401  and  _402
REMARK  152  A    between atoms: _401  and  _404
REMARK  153  A    between atoms: _404  and  _405
REMARK  154  A    between atoms: _405  and  _406
REMARK  155  A    between atoms: _411  and  _413
REMARK  156  A    between atoms: _413  and  _414
REMARK  157  A    between atoms: _413  and  _416
REMARK  158  A    between atoms: _420  and  _421
REMARK  159  A    between atoms: _426  and  _428
REMARK  160  A    between atoms: _428  and  _429
REMARK  161  A    between atoms: _428  and  _431
REMARK  162  A    between atoms: _431  and  _432
REMARK  163  A    between atoms: _438  and  _440
REMARK  164  A    between atoms: _440  and  _441
REMARK  165  A    between atoms: _440  and  _443
REMARK  166  A    between atoms: _443  and  _444
REMARK  167  A    between atoms: _449  and  _450
REMARK  168  A    between atoms: _452  and  _454
REMARK  169  A    between atoms: _454  and  _455
REMARK  170  A    between atoms: _457  and  _459
REMARK  171  A    between atoms: _459  and  _460
REMARK  172  A    between atoms: _459  and  _462
REMARK  173  A    between atoms: _462  and  _463
REMARK  174  A    between atoms: _463  and  _464
REMARK  175  A    between atoms: _464  and  _465
REMARK  176  A    between atoms: _474  and  _476
REMARK  177  A    between atoms: _476  and  _477
REMARK  178  A    between atoms: _476  and  _479
REMARK  179  A    between atoms: _479  and  _480
REMARK  180  A    between atoms: _483  and  _485
REMARK  181  A    between atoms: _485  and  _486
REMARK  182  A    between atoms: _485  and  _488
REMARK  183  A    between atoms: _488  and  _489
REMARK  184  A    between atoms: _492  and  _494
REMARK  185  A    between atoms: _494  and  _495
REMARK  186  A    between atoms: _494  and  _497
REMARK  187  A    between atoms: _497  and  _498
REMARK  188  A    between atoms: _501  and  _503
REMARK  189  A    between atoms: _503  and  _504
REMARK  190  A    between atoms: _503  and  _506
REMARK  191  A    between atoms: _506  and  _507
REMARK  192  A    between atoms: _507  and  _508
REMARK  193  A    between atoms: _508  and  _509
REMARK  194  A    between atoms: _518  and  _520
REMARK  195  A    between atoms: _520  and  _521
REMARK  196  A    between atoms: _520  and  _523
REMARK  197  A    between atoms: _523  and  _524
REMARK  198  A    between atoms: _527  and  _529
REMARK  199  A    between atoms: _529  and  _530
REMARK  200  A    between atoms: _533  and  _535
REMARK  201  A    between atoms: _535  and  _536
REMARK  202  A    between atoms: _535  and  _538
REMARK  203  A    between atoms: _538  and  _539
REMARK  204  A    between atoms: _541  and  _543
REMARK  205  A    between atoms: _543  and  _544
REMARK  206  A    between atoms: _543  and  _546
REMARK  207  A    between atoms: _546  and  _547
REMARK  208  A    between atoms: _547  and  _548
REMARK  209  A    between atoms: _550  and  _552
REMARK  210  A    between atoms: _552  and  _553
REMARK  211  A    between atoms: _552  and  _555
REMARK  212  A    between atoms: _555  and  _556
REMARK  213  A    between atoms: _562  and  _564
REMARK  214  A    between atoms: _564  and  _565
REMARK  215  A    between atoms: _564  and  _567
REMARK  216  A    between atoms: _567  and  _568
REMARK  217  A    between atoms: _578  and  _580
REMARK  218  A    between atoms: _580  and  _581
REMARK  219  A    between atoms: _580  and  _583
REMARK  220  A    between atoms: _583  and  _584
REMARK  221  A    between atoms: _589  and  _591
REMARK  222  A    between atoms: _591  and  _592
REMARK  223  A    between atoms: _591  and  _594
REMARK  224  A    between atoms: _594  and  _595
REMARK  225  A    between atoms: _595  and  _596
REMARK                            x       y       z     vdW  Elec       q    Type
REMARK                         _______ _______ _______ _____ _____    ______ ____
ROOT
ATOM      1  O   HOH     1      26.860  40.787  92.716  0.00  0.00    +0.000 OA
ENDROOT
TORSDOF 0
REMARK  Name = ../refined-set-2016/1ur9/1ur9_pocket.pdb
REMARK  225 active torsions:
REMARK  status: ('A' for Active; 'I' for Inactive)
REMARK    1  A    between atoms: _1  and  _3
REMARK    2  A    between atoms: _3  and  _4
REMARK    3  A    between atoms: _3  and  _6
REMARK    4  A    between atoms: _6  and  _7
REMARK    5  A    between atoms: _12  and  _13
REMARK    6  A    between atoms: _15  and  _17
REMARK    7  A    between atoms: _17  and  _18
REMARK    8  A    between atoms: _17  and  _20
REMARK    9  A    between atoms: _20  and  _21
REMARK   10  A    between atoms: _28  and  _29
REMARK   11  A    between atoms: _34  and  _36
REMARK   12  A    between atoms: _36  and  _37
REMARK   13  A    between atoms: _36  and  _39
REMARK   14  A    between atoms: _39  and  _40
REMARK   15  A    between atoms: _45  and  _47
REMARK   16  A    between atoms: _47  and  _48
REMARK   17  A    between atoms: _47  and  _50
REMARK   18  A    between atoms: _50  and  _51
REMARK   19  A    between atoms: _53  and  _55
REMARK   20  A    between atoms: _55  and  _56
REMARK   21  A    between atoms: _55  and  _58
REMARK   22  A    between atoms: _58  and  _59
REMARK   23  A    between atoms: _65  and  _67
REMARK   24  A    between atoms: _67  and  _68
REMARK   25  A    between atoms: _67  and  _70
REMARK   26  A    between atoms: _70  and  _71
REMARK   27  A    between atoms: _73  and  _75
REMARK   28  A    between atoms: _75  and  _76
REMARK   29  A    between atoms: _78  and  _80
REMARK   30  A    between atoms: _80  and  _81
REMARK   31  A    between atoms: _83  and  _85
REMARK   32  A    between atoms: _85  and  _86
REMARK   33  A    between atoms: _85  and  _88
REMARK   34  A    between atoms: _88  and  _89
REMARK   35  A    between atoms: _99  and  _101
REMARK   36  A    between atoms: _101  and  _102
REMARK   37  A    between atoms: _101  and  _104
REMARK   38  A    between atoms: _104  and  _105
REMARK   39  A    between atoms: _110  and  _111
REMARK   40  A    between atoms: _113  and  _115
REMARK   41  A    between atoms: _115  and  _116
REMARK   42  A    between atoms: _115  and  _118
REMARK   43  A    between atoms: _118  and  _119
REMARK   44  A    between atoms: _124  and  _125
REMARK   45  A    between atoms: _127  and  _129
REMARK   46  A    between atoms: _129  and  _130
REMARK   47  A    between atoms: _129  and  _132
REMARK   48  A    between atoms: _132  and  _133
REMARK   49  A    between atoms: _135  and  _137
REMARK   50  A    between atoms: _137  and  _138
REMARK   51  A    between atoms: _137  and  _140
REMARK   52  A    between atoms: _140  and  _141
REMARK   53  A    between atoms: _146  and  _148
REMARK   54  A    between atoms: _148  and  _149
REMARK   55  A    between atoms: _148  and  _151
REMARK   56  A    between atoms: _151  and  _152
REMARK   57  A    between atoms: _155  and  _157
REMARK   58  A    between atoms: _157  and  _158
REMARK   59  A    between atoms: _157  and  _160
REMARK   60  A    between atoms: _160  and  _161
REMARK   61  A    between atoms: _164  and  _166
REMARK   62  A    between atoms: _166  and  _167
REMARK   63  A    between atoms: _166  and  _169
REMARK   64  A    between atoms: _169  and  _170
REMARK   65  A    between atoms: _175  and  _177
REMARK   66  A    between atoms: _177  and  _178
REMARK   67  A    between atoms: _177  and  _180
REMARK   68  A    between atoms: _180  and  _181
REMARK   69  A    between atoms: _191  and  _193
REMARK   70  A    between atoms: _193  and  _194
REMARK   71  A    between atoms: _193  and  _196
REMARK   72  A    between atoms: _196  and  _197
REMARK   73  A    between atoms: _197  and  _198
REMARK   74  A    between atoms: _201  and  _203
REMARK   75  A    between atoms: _203  and  _204
REMARK   76  A    between atoms: _203  and  _206
REMARK   77  A    between atoms: _206  and  _207
REMARK   78  A    between atoms: _212  and  _213
REMARK   79  A    between atoms: _215  and  _217
REMARK   80  A    between atoms: _217  and  _218
REMARK   81  A    between atoms: _217  and  _220
REMARK   82  A    between atoms: _220  and  _221
REMARK   83  A    between atoms: _224  and  _226
REMARK   84  A    between atoms: _226  and  _227
REMARK   85  A    between atoms: _230  and  _232
REMARK   86  A    between atoms: _232  and  _233
REMARK   87  A    between atoms: _235  and  _237
REMARK   88  A    between atoms: _237  and  _238
REMARK   89  A    between atoms: _241  and  _243
REMARK   90  A    between atoms: _243  and  _244
REMARK   91  A    between atoms: _246  and  _248
REMARK   92  A    between atoms: _248  and  _249
REMARK   93  A    between atoms: _251  and  _253
REMARK   94  A    between atoms: _253  and  _254
REMARK   95  A    between atoms: _253  and  _256
REMARK   96  A    between atoms: _256  and  _257
REMARK   97  A    between atoms: _263  and  _265
REMARK   98  A    between atoms: _265  and  _266
REMARK   99  A    between atoms: _265  and  _268
REMARK  100  A    between atoms: _268  and  _269
REMARK  101  A    between atoms: _275  and  _277
REMARK  102  A    between atoms: _277  and  _278
REMARK  103  A    between atoms: _277  and  _280
REMARK  104  A    between atoms: _280  and  _281
REMARK  105  A    between atoms: _281  and  _282
REMARK  106  A    between atoms: _282  and  _283
REMARK  107  A    between atoms: _292  and  _294
REMARK  108  A    between atoms: _294  and  _295
REMARK  109  A    between atoms: _294  and  _297
REMARK  110  A    between atoms: _297  and  _298
REMARK  111  A    between atoms: _303  and  _305
REMARK  112  A    between atoms: _305  and  _306
REMARK  113  A    between atoms: _305  and  _308
REMARK  114  A    between atoms: _308  and  _309
REMARK  115  A    between atoms: _312  and  _314
REMARK  116  A    between atoms: _314  and  _315
REMARK  117  A    between atoms: _314  and  _317
REMARK  118  A    between atoms: _317  and  _318
REMARK  119  A    between atoms: _318  and  _319
REMARK  120  A    between atoms: _321  and  _323
REMARK  121  A    between atoms: _323  and  _324
REMARK  122  A    between atoms: _323  and  _326
REMARK  123  A    between atoms: _326  and  _327
REMARK  124  A    between atoms: _330  and  _332
REMARK  125  A    between atoms: _332  and  _333
REMARK  126  A    between atoms: _332  and  _335
REMARK  127  A    between atoms: _335  and  _336
REMARK  128  A    between atoms: _341  and  _342
REMARK  129  A    between atoms: _344  and  _346
REMARK  130  A    between atoms: _346  and  _347
REMARK  131  A    between atoms: _346  and  _349
REMARK  132  A    between atoms: _349  and  _350
REMARK  133  A    between atoms: _353  and  _355
REMARK  134  A    between atoms: _355  and  _356
REMARK  135  A    between atoms: _355  and  _358
REMARK  136  A    between atoms: _358  and  _359
REMARK  137  A    between atoms: _362  and  _364
REMARK  138  A    between atoms: _364  and  _365
REMARK  139  A    between atoms: _368  and  _370
REMARK  140  A    between atoms: _370  and  _371
REMARK  141  A    between atoms: _373  and  _375
REMARK  142  A    between atoms: _375  and  _376
REMARK  143  A    between atoms: _375  and  _378
REMARK  144  A    between atoms: _378  and  _379
REMARK  145  A    between atoms: _389  and  _391
REMARK  146  A    between atoms: _391  and  _392
REMARK  147  A    between atoms: _391  and  _394
REMARK  148  A    between atoms: _394  and  _395
REMARK  149  A    between atoms: _395  and  _396
REMARK  150  A    between atoms: _399  and  _401
REMARK  151  A    between atoms: _401  and  _402
REMARK  152  A    between atoms: _401  and  _404
REMARK  153  A    between atoms: _404  and  _405
REMARK  154  A    between atoms: _405  and  _406
REMARK  155  A    between atoms: _411  and  _413
REMARK  156  A    between atoms: _413  and  _414
REMARK  157  A    between atoms: _413  and  _416
REMARK  158  A    between atoms: _420  and  _421
REMARK  159  A    between atoms: _426  and  _428
REMARK  160  A    between atoms: _428  and  _429
REMARK  161  A    between atoms: _428  and  _431
REMARK  162  A    between atoms: _431  and  _432
REMARK  163  A    between atoms: _438  and  _440
REMARK  164  A    between atoms: _440  and  _441
REMARK  165  A    between atoms: _440  and  _443
REMARK  166  A    between atoms: _443  and  _444
REMARK  167  A    between atoms: _449  and  _450
REMARK  168  A    between atoms: _452  and  _454
REMARK  169  A    between atoms: _454  and  _455
REMARK  170  A    between atoms: _457  and  _459
REMARK  171  A    between atoms: _459  and  _460
REMARK  172  A    between atoms: _459  and  _462
REMARK  173  A    between atoms: _462  and  _463
REMARK  174  A    between atoms: _463  and  _464
REMARK  175  A    between atoms: _464  and  _465
REMARK  176  A    between atoms: _474  and  _476
REMARK  177  A    between atoms: _476  and  _477
REMARK  178  A    between atoms: _476  and  _479
REMARK  179  A    between atoms: _479  and  _480
REMARK  180  A    between atoms: _483  and  _485
REMARK  181  A    between atoms: _485  and  _486
REMARK  182  A    between atoms: _485  and  _488
REMARK  183  A    between atoms: _488  and  _489
REMARK  184  A    between atoms: _492  and  _494
REMARK  185  A    between atoms: _494  and  _495
REMARK  186  A    between atoms: _494  and  _497
REMARK  187  A    between atoms: _497  and  _498
REMARK  188  A    between atoms: _501  and  _503
REMARK  189  A    between atoms: _503  and  _504
REMARK  190  A    between atoms: _503  and  _506
REMARK  191  A    between atoms: _506  and  _507
REMARK  192  A    between atoms: _507  and  _508
REMARK  193  A    between atoms: _508  and  _509
REMARK  194  A    between atoms: _518  and  _520
REMARK  195  A    between atoms: _520  and  _521
REMARK  196  A    between atoms: _520  and  _523
REMARK  197  A    between atoms: _523  and  _524
REMARK  198  A    between atoms: _527  and  _529
REMARK  199  A    between atoms: _529  and  _530
REMARK  200  A    between atoms: _533  and  _535
REMARK  201  A    between atoms: _535  and  _536
REMARK  202  A    between atoms: _535  and  _538
REMARK  203  A    between atoms: _538  and  _539
REMARK  204  A    between atoms: _541  and  _543
REMARK  205  A    between atoms: _543  and  _544
REMARK  206  A    between atoms: _543  and  _546
REMARK  207  A    between atoms: _546  and  _547
REMARK  208  A    between atoms: _547  and  _548
REMARK  209  A    between atoms: _550  and  _552
REMARK  210  A    between atoms: _552  and  _553
REMARK  211  A    between atoms: _552  and  _555
REMARK  212  A    between atoms: _555  and  _556
REMARK  213  A    between atoms: _562  and  _564
REMARK  214  A    between atoms: _564  and  _565
REMARK  215  A    between atoms: _564  and  _567
REMARK  216  A    between atoms: _567  and  _568
REMARK  217  A    between atoms: _578  and  _580
REMARK  218  A    between atoms: _580  and  _581
REMARK  219  A    between atoms: _580  and  _583
REMARK  220  A    between atoms: _583  and  _584
REMARK  221  A    between atoms: _589  and  _591
REMARK  222  A    between atoms: _591  and  _592
REMARK  223  A    between atoms: _591  and  _594
REMARK  224  A    between atoms: _594  and  _595
REMARK  225  A    between atoms: _595  and  _596
REMARK                            x       y       z     vdW  Elec       q    Type
REMARK                         _______ _______ _______ _____ _____    ______ ____
ROOT
ATOM      1  O   HOH     1      26.227  40.274  87.495  0.00  0.00    +0.000 OA
ENDROOT
TORSDOF 0
REMARK  Name = ../refined-set-2016/1ur9/1ur9_pocket.pdb
REMARK  225 active torsions:
REMARK  status: ('A' for Active; 'I' for Inactive)
REMARK    1  A    between atoms: _1  and  _3
REMARK    2  A    between atoms: _3  and  _4
REMARK    3  A    between atoms: _3  and  _6
REMARK    4  A    between atoms: _6  and  _7
REMARK    5  A    between atoms: _12  and  _13
REMARK    6  A    between atoms: _15  and  _17
REMARK    7  A    between atoms: _17  and  _18
REMARK    8  A    between atoms: _17  and  _20
REMARK    9  A    between atoms: _20  and  _21
REMARK   10  A    between atoms: _28  and  _29
REMARK   11  A    between atoms: _34  and  _36
REMARK   12  A    between atoms: _36  and  _37
REMARK   13  A    between atoms: _36  and  _39
REMARK   14  A    between atoms: _39  and  _40
REMARK   15  A    between atoms: _45  and  _47
REMARK   16  A    between atoms: _47  and  _48
REMARK   17  A    between atoms: _47  and  _50
REMARK   18  A    between atoms: _50  and  _51
REMARK   19  A    between atoms: _53  and  _55
REMARK   20  A    between atoms: _55  and  _56
REMARK   21  A    between atoms: _55  and  _58
REMARK   22  A    between atoms: _58  and  _59
REMARK   23  A    between atoms: _65  and  _67
REMARK   24  A    between atoms: _67  and  _68
REMARK   25  A    between atoms: _67  and  _70
REMARK   26  A    between atoms: _70  and  _71
REMARK   27  A    between atoms: _73  and  _75
REMARK   28  A    between atoms: _75  and  _76
REMARK   29  A    between atoms: _78  and  _80
REMARK   30  A    between atoms: _80  and  _81
REMARK   31  A    between atoms: _83  and  _85
REMARK   32  A    between atoms: _85  and  _86
REMARK   33  A    between atoms: _85  and  _88
REMARK   34  A    between atoms: _88  and  _89
REMARK   35  A    between atoms: _99  and  _101
REMARK   36  A    between atoms: _101  and  _102
REMARK   37  A    between atoms: _101  and  _104
REMARK   38  A    between atoms: _104  and  _105
REMARK   39  A    between atoms: _110  and  _111
REMARK   40  A    between atoms: _113  and  _115
REMARK   41  A    between atoms: _115  and  _116
REMARK   42  A    between atoms: _115  and  _118
REMARK   43  A    between atoms: _118  and  _119
REMARK   44  A    between atoms: _124  and  _125
REMARK   45  A    between atoms: _127  and  _129
REMARK   46  A    between atoms: _129  and  _130
REMARK   47  A    between atoms: _129  and  _132
REMARK   48  A    between atoms: _132  and  _133
REMARK   49  A    between atoms: _135  and  _137
REMARK   50  A    between atoms: _137  and  _138
REMARK   51  A    between atoms: _137  and  _140
REMARK   52  A    between atoms: _140  and  _141
REMARK   53  A    between atoms: _146  and  _148
REMARK   54  A    between atoms: _148  and  _149
REMARK   55  A    between atoms: _148  and  _151
REMARK   56  A    between atoms: _151  and  _152
REMARK   57  A    between atoms: _155  and  _157
REMARK   58  A    between atoms: _157  and  _158
REMARK   59  A    between atoms: _157  and  _160
REMARK   60  A    between atoms: _160  and  _161
REMARK   61  A    between atoms: _164  and  _166
REMARK   62  A    between atoms: _166  and  _167
REMARK   63  A    between atoms: _166  and  _169
REMARK   64  A    between atoms: _169  and  _170
REMARK   65  A    between atoms: _175  and  _177
REMARK   66  A    between atoms: _177  and  _178
REMARK   67  A    between atoms: _177  and  _180
REMARK   68  A    between atoms: _180  and  _181
REMARK   69  A    between atoms: _191  and  _193
REMARK   70  A    between atoms: _193  and  _194
REMARK   71  A    between atoms: _193  and  _196
REMARK   72  A    between atoms: _196  and  _197
REMARK   73  A    between atoms: _197  and  _198
REMARK   74  A    between atoms: _201  and  _203
REMARK   75  A    between atoms: _203  and  _204
REMARK   76  A    between atoms: _203  and  _206
REMARK   77  A    between atoms: _206  and  _207
REMARK   78  A    between atoms: _212  and  _213
REMARK   79  A    between atoms: _215  and  _217
REMARK   80  A    between atoms: _217  and  _218
REMARK   81  A    between atoms: _217  and  _220
REMARK   82  A    between atoms: _220  and  _221
REMARK   83  A    between atoms: _224  and  _226
REMARK   84  A    between atoms: _226  and  _227
REMARK   85  A    between atoms: _230  and  _232
REMARK   86  A    between atoms: _232  and  _233
REMARK   87  A    between atoms: _235  and  _237
REMARK   88  A    between atoms: _237  and  _238
REMARK   89  A    between atoms: _241  and  _243
REMARK   90  A    between atoms: _243  and  _244
REMARK   91  A    between atoms: _246  and  _248
REMARK   92  A    between atoms: _248  and  _249
REMARK   93  A    between atoms: _251  and  _253
REMARK   94  A    between atoms: _253  and  _254
REMARK   95  A    between atoms: _253  and  _256
REMARK   96  A    between atoms: _256  and  _257
REMARK   97  A    between atoms: _263  and  _265
REMARK   98  A    between atoms: _265  and  _266
REMARK   99  A    between atoms: _265  and  _268
REMARK  100  A    between atoms: _268  and  _269
REMARK  101  A    between atoms: _275  and  _277
REMARK  102  A    between atoms: _277  and  _278
REMARK  103  A    between atoms: _277  and  _280
REMARK  104  A    between atoms: _280  and  _281
REMARK  105  A    between atoms: _281  and  _282
REMARK  106  A    between atoms: _282  and  _283
REMARK  107  A    between atoms: _292  and  _294
REMARK  108  A    between atoms: _294  and  _295
REMARK  109  A    between atoms: _294  and  _297
REMARK  110  A    between atoms: _297  and  _298
REMARK  111  A    between atoms: _303  and  _305
REMARK  112  A    between atoms: _305  and  _306
REMARK  113  A    between atoms: _305  and  _308
REMARK  114  A    between atoms: _308  and  _309
REMARK  115  A    between atoms: _312  and  _314
REMARK  116  A    between atoms: _314  and  _315
REMARK  117  A    between atoms: _314  and  _317
REMARK  118  A    between atoms: _317  and  _318
REMARK  119  A    between atoms: _318  and  _319
REMARK  120  A    between atoms: _321  and  _323
REMARK  121  A    between atoms: _323  and  _324
REMARK  122  A    between atoms: _323  and  _326
REMARK  123  A    between atoms: _326  and  _327
REMARK  124  A    between atoms: _330  and  _332
REMARK  125  A    between atoms: _332  and  _333
REMARK  126  A    between atoms: _332  and  _335
REMARK  127  A    between atoms: _335  and  _336
REMARK  128  A    between atoms: _341  and  _342
REMARK  129  A    between atoms: _344  and  _346
REMARK  130  A    between atoms: _346  and  _347
REMARK  131  A    between atoms: _346  and  _349
REMARK  132  A    between atoms: _349  and  _350
REMARK  133  A    between atoms: _353  and  _355
REMARK  134  A    between atoms: _355  and  _356
REMARK  135  A    between atoms: _355  and  _358
REMARK  136  A    between atoms: _358  and  _359
REMARK  137  A    between atoms: _362  and  _364
REMARK  138  A    between atoms: _364  and  _365
REMARK  139  A    between atoms: _368  and  _370
REMARK  140  A    between atoms: _370  and  _371
REMARK  141  A    between atoms: _373  and  _375
REMARK  142  A    between atoms: _375  and  _376
REMARK  143  A    between atoms: _375  and  _378
REMARK  144  A    between atoms: _378  and  _379
REMARK  145  A    between atoms: _389  and  _391
REMARK  146  A    between atoms: _391  and  _392
REMARK  147  A    between atoms: _391  and  _394
REMARK  148  A    between atoms: _394  and  _395
REMARK  149  A    between atoms: _395  and  _396
REMARK  150  A    between atoms: _399  and  _401
REMARK  151  A    between atoms: _401  and  _402
REMARK  152  A    between atoms: _401  and  _404
REMARK  153  A    between atoms: _404  and  _405
REMARK  154  A    between atoms: _405  and  _406
REMARK  155  A    between atoms: _411  and  _413
REMARK  156  A    between atoms: _413  and  _414
REMARK  157  A    between atoms: _413  and  _416
REMARK  158  A    between atoms: _420  and  _421
REMARK  159  A    between atoms: _426  and  _428
REMARK  160  A    between atoms: _428  and  _429
REMARK  161  A    between atoms: _428  and  _431
REMARK  162  A    between atoms: _431  and  _432
REMARK  163  A    between atoms: _438  and  _440
REMARK  164  A    between atoms: _440  and  _441
REMARK  165  A    between atoms: _440  and  _443
REMARK  166  A    between atoms: _443  and  _444
REMARK  167  A    between atoms: _449  and  _450
REMARK  168  A    between atoms: _452  and  _454
REMARK  169  A    between atoms: _454  and  _455
REMARK  170  A    between atoms: _457  and  _459
REMARK  171  A    between atoms: _459  and  _460
REMARK  172  A    between atoms: _459  and  _462
REMARK  173  A    between atoms: _462  and  _463
REMARK  174  A    between atoms: _463  and  _464
REMARK  175  A    between atoms: _464  and  _465
REMARK  176  A    between atoms: _474  and  _476
REMARK  177  A    between atoms: _476  and  _477
REMARK  178  A    between atoms: _476  and  _479
REMARK  179  A    between atoms: _479  and  _480
REMARK  180  A    between atoms: _483  and  _485
REMARK  181  A    between atoms: _485  and  _486
REMARK  182  A    between atoms: _485  and  _488
REMARK  183  A    between atoms: _488  and  _489
REMARK  184  A    between atoms: _492  and  _494
REMARK  185  A    between atoms: _494  and  _495
REMARK  186  A    between atoms: _494  and  _497
REMARK  187  A    between atoms: _497  and  _498
REMARK  188  A    between atoms: _501  and  _503
REMARK  189  A    between atoms: _503  and  _504
REMARK  190  A    between atoms: _503  and  _506
REMARK  191  A    between atoms: _506  and  _507
REMARK  192  A    between atoms: _507  and  _508
REMARK  193  A    between atoms: _508  and  _509
REMARK  194  A    between atoms: _518  and  _520
REMARK  195  A    between atoms: _520  and  _521
REMARK  196  A    between atoms: _520  and  _523
REMARK  197  A    between atoms: _523  and  _524
REMARK  198  A    between atoms: _527  and  _529
REMARK  199  A    between atoms: _529  and  _530
REMARK  200  A    between atoms: _533  and  _535
REMARK  201  A    between atoms: _535  and  _536
REMARK  202  A    between atoms: _535  and  _538
REMARK  203  A    between atoms: _538  and  _539
REMARK  204  A    between atoms: _541  and  _543
REMARK  205  A    between atoms: _543  and  _544
REMARK  206  A    between atoms: _543  and  _546
REMARK  207  A    between atoms: _546  and  _547
REMARK  208  A    between atoms: _547  and  _548
REMARK  209  A    between atoms: _550  and  _552
REMARK  210  A    between atoms: _552  and  _553
REMARK  211  A    between atoms: _552  and  _555
REMARK  212  A    between atoms: _555  and  _556
REMARK  213  A    between atoms: _562  and  _564
REMARK  214  A    between atoms: _564  and  _565
REMARK  215  A    between atoms: _564  and  _567
REMARK  216  A    between atoms: _567  and  _568
REMARK  217  A    between atoms: _578  and  _580
REMARK  218  A    between atoms: _580  and  _581
REMARK  219  A    between atoms: _580  and  _583
REMARK  220  A    between atoms: _583  and  _584
REMARK  221  A    between atoms: _589  and  _591
REMARK  222  A    between atoms: _591  and  _592
REMARK  223  A    between atoms: _591  and  _594
REMARK  224  A    between atoms: _594  and  _595
REMARK  225  A    between atoms: _595  and  _596
REMARK                            x       y       z     vdW  Elec       q    Type
REMARK                         _______ _______ _______ _____ _____    ______ ____
ROOT
ATOM      1  O   HOH     1      23.560  33.328 100.157  0.00  0.00    +0.000 OA
ENDROOT
TORSDOF 0
REMARK  Name = ../refined-set-2016/1ur9/1ur9_pocket.pdb
REMARK  225 active torsions:
REMARK  status: ('A' for Active; 'I' for Inactive)
REMARK    1  A    between atoms: _1  and  _3
REMARK    2  A    between atoms: _3  and  _4
REMARK    3  A    between atoms: _3  and  _6
REMARK    4  A    between atoms: _6  and  _7
REMARK    5  A    between atoms: _12  and  _13
REMARK    6  A    between atoms: _15  and  _17
REMARK    7  A    between atoms: _17  and  _18
REMARK    8  A    between atoms: _17  and  _20
REMARK    9  A    between atoms: _20  and  _21
REMARK   10  A    between atoms: _28  and  _29
REMARK   11  A    between atoms: _34  and  _36
REMARK   12  A    between atoms: _36  and  _37
REMARK   13  A    between atoms: _36  and  _39
REMARK   14  A    between atoms: _39  and  _40
REMARK   15  A    between atoms: _45  and  _47
REMARK   16  A    between atoms: _47  and  _48
REMARK   17  A    between atoms: _47  and  _50
REMARK   18  A    between atoms: _50  and  _51
REMARK   19  A    between atoms: _53  and  _55
REMARK   20  A    between atoms: _55  and  _56
REMARK   21  A    between atoms: _55  and  _58
REMARK   22  A    between atoms: _58  and  _59
REMARK   23  A    between atoms: _65  and  _67
REMARK   24  A    between atoms: _67  and  _68
REMARK   25  A    between atoms: _67  and  _70
REMARK   26  A    between atoms: _70  and  _71
REMARK   27  A    between atoms: _73  and  _75
REMARK   28  A    between atoms: _75  and  _76
REMARK   29  A    between atoms: _78  and  _80
REMARK   30  A    between atoms: _80  and  _81
REMARK   31  A    between atoms: _83  and  _85
REMARK   32  A    between atoms: _85  and  _86
REMARK   33  A    between atoms: _85  and  _88
REMARK   34  A    between atoms: _88  and  _89
REMARK   35  A    between atoms: _99  and  _101
REMARK   36  A    between atoms: _101  and  _102
REMARK   37  A    between atoms: _101  and  _104
REMARK   38  A    between atoms: _104  and  _105
REMARK   39  A    between atoms: _110  and  _111
REMARK   40  A    between atoms: _113  and  _115
REMARK   41  A    between atoms: _115  and  _116
REMARK   42  A    between atoms: _115  and  _118
REMARK   43  A    between atoms: _118  and  _119
REMARK   44  A    between atoms: _124  and  _125
REMARK   45  A    between atoms: _127  and  _129
REMARK   46  A    between atoms: _129  and  _130
REMARK   47  A    between atoms: _129  and  _132
REMARK   48  A    between atoms: _132  and  _133
REMARK   49  A    between atoms: _135  and  _137
REMARK   50  A    between atoms: _137  and  _138
REMARK   51  A    between atoms: _137  and  _140
REMARK   52  A    between atoms: _140  and  _141
REMARK   53  A    between atoms: _146  and  _148
REMARK   54  A    between atoms: _148  and  _149
REMARK   55  A    between atoms: _148  and  _151
REMARK   56  A    between atoms: _151  and  _152
REMARK   57  A    between atoms: _155  and  _157
REMARK   58  A    between atoms: _157  and  _158
REMARK   59  A    between atoms: _157  and  _160
REMARK   60  A    between atoms: _160  and  _161
REMARK   61  A    between atoms: _164  and  _166
REMARK   62  A    between atoms: _166  and  _167
REMARK   63  A    between atoms: _166  and  _169
REMARK   64  A    between atoms: _169  and  _170
REMARK   65  A    between atoms: _175  and  _177
REMARK   66  A    between atoms: _177  and  _178
REMARK   67  A    between atoms: _177  and  _180
REMARK   68  A    between atoms: _180  and  _181
REMARK   69  A    between atoms: _191  and  _193
REMARK   70  A    between atoms: _193  and  _194
REMARK   71  A    between atoms: _193  and  _196
REMARK   72  A    between atoms: _196  and  _197
REMARK   73  A    between atoms: _197  and  _198
REMARK   74  A    between atoms: _201  and  _203
REMARK   75  A    between atoms: _203  and  _204
REMARK   76  A    between atoms: _203  and  _206
REMARK   77  A    between atoms: _206  and  _207
REMARK   78  A    between atoms: _212  and  _213
REMARK   79  A    between atoms: _215  and  _217
REMARK   80  A    between atoms: _217  and  _218
REMARK   81  A    between atoms: _217  and  _220
REMARK   82  A    between atoms: _220  and  _221
REMARK   83  A    between atoms: _224  and  _226
REMARK   84  A    between atoms: _226  and  _227
REMARK   85  A    between atoms: _230  and  _232
REMARK   86  A    between atoms: _232  and  _233
REMARK   87  A    between atoms: _235  and  _237
REMARK   88  A    between atoms: _237  and  _238
REMARK   89  A    between atoms: _241  and  _243
REMARK   90  A    between atoms: _243  and  _244
REMARK   91  A    between atoms: _246  and  _248
REMARK   92  A    between atoms: _248  and  _249
REMARK   93  A    between atoms: _251  and  _253
REMARK   94  A    between atoms: _253  and  _254
REMARK   95  A    between atoms: _253  and  _256
REMARK   96  A    between atoms: _256  and  _257
REMARK   97  A    between atoms: _263  and  _265
REMARK   98  A    between atoms: _265  and  _266
REMARK   99  A    between atoms: _265  and  _268
REMARK  100  A    between atoms: _268  and  _269
REMARK  101  A    between atoms: _275  and  _277
REMARK  102  A    between atoms: _277  and  _278
REMARK  103  A    between atoms: _277  and  _280
REMARK  104  A    between atoms: _280  and  _281
REMARK  105  A    between atoms: _281  and  _282
REMARK  106  A    between atoms: _282  and  _283
REMARK  107  A    between atoms: _292  and  _294
REMARK  108  A    between atoms: _294  and  _295
REMARK  109  A    between atoms: _294  and  _297
REMARK  110  A    between atoms: _297  and  _298
REMARK  111  A    between atoms: _303  and  _305
REMARK  112  A    between atoms: _305  and  _306
REMARK  113  A    between atoms: _305  and  _308
REMARK  114  A    between atoms: _308  and  _309
REMARK  115  A    between atoms: _312  and  _314
REMARK  116  A    between atoms: _314  and  _315
REMARK  117  A    between atoms: _314  and  _317
REMARK  118  A    between atoms: _317  and  _318
REMARK  119  A    between atoms: _318  and  _319
REMARK  120  A    between atoms: _321  and  _323
REMARK  121  A    between atoms: _323  and  _324
REMARK  122  A    between atoms: _323  and  _326
REMARK  123  A    between atoms: _326  and  _327
REMARK  124  A    between atoms: _330  and  _332
REMARK  125  A    between atoms: _332  and  _333
REMARK  126  A    between atoms: _332  and  _335
REMARK  127  A    between atoms: _335  and  _336
REMARK  128  A    between atoms: _341  and  _342
REMARK  129  A    between atoms: _344  and  _346
REMARK  130  A    between atoms: _346  and  _347
REMARK  131  A    between atoms: _346  and  _349
REMARK  132  A    between atoms: _349  and  _350
REMARK  133  A    between atoms: _353  and  _355
REMARK  134  A    between atoms: _355  and  _356
REMARK  135  A    between atoms: _355  and  _358
REMARK  136  A    between atoms: _358  and  _359
REMARK  137  A    between atoms: _362  and  _364
REMARK  138  A    between atoms: _364  and  _365
REMARK  139  A    between atoms: _368  and  _370
REMARK  140  A    between atoms: _370  and  _371
REMARK  141  A    between atoms: _373  and  _375
REMARK  142  A    between atoms: _375  and  _376
REMARK  143  A    between atoms: _375  and  _378
REMARK  144  A    between atoms: _378  and  _379
REMARK  145  A    between atoms: _389  and  _391
REMARK  146  A    between atoms: _391  and  _392
REMARK  147  A    between atoms: _391  and  _394
REMARK  148  A    between atoms: _394  and  _395
REMARK  149  A    between atoms: _395  and  _396
REMARK  150  A    between atoms: _399  and  _401
REMARK  151  A    between atoms: _401  and  _402
REMARK  152  A    between atoms: _401  and  _404
REMARK  153  A    between atoms: _404  and  _405
REMARK  154  A    between atoms: _405  and  _406
REMARK  155  A    between atoms: _411  and  _413
REMARK  156  A    between atoms: _413  and  _414
REMARK  157  A    between atoms: _413  and  _416
REMARK  158  A    between atoms: _420  and  _421
REMARK  159  A    between atoms: _426  and  _428
REMARK  160  A    between atoms: _428  and  _429
REMARK  161  A    between atoms: _428  and  _431
REMARK  162  A    between atoms: _431  and  _432
REMARK  163  A    between atoms: _438  and  _440
REMARK  164  A    between atoms: _440  and  _441
REMARK  165  A    between atoms: _440  and  _443
REMARK  166  A    between atoms: _443  and  _444
REMARK  167  A    between atoms: _449  and  _450
REMARK  168  A    between atoms: _452  and  _454
REMARK  169  A    between atoms: _454  and  _455
REMARK  170  A    between atoms: _457  and  _459
REMARK  171  A    between atoms: _459  and  _460
REMARK  172  A    between atoms: _459  and  _462
REMARK  173  A    between atoms: _462  and  _463
REMARK  174  A    between atoms: _463  and  _464
REMARK  175  A    between atoms: _464  and  _465
REMARK  176  A    between atoms: _474  and  _476
REMARK  177  A    between atoms: _476  and  _477
REMARK  178  A    between atoms: _476  and  _479
REMARK  179  A    between atoms: _479  and  _480
REMARK  180  A    between atoms: _483  and  _485
REMARK  181  A    between atoms: _485  and  _486
REMARK  182  A    between atoms: _485  and  _488
REMARK  183  A    between atoms: _488  and  _489
REMARK  184  A    between atoms: _492  and  _494
REMARK  185  A    between atoms: _494  and  _495
REMARK  186  A    between atoms: _494  and  _497
REMARK  187  A    between atoms: _497  and  _498
REMARK  188  A    between atoms: _501  and  _503
REMARK  189  A    between atoms: _503  and  _504
REMARK  190  A    between atoms: _503  and  _506
REMARK  191  A    between atoms: _506  and  _507
REMARK  192  A    between atoms: _507  and  _508
REMARK  193  A    between atoms: _508  and  _509
REMARK  194  A    between atoms: _518  and  _520
REMARK  195  A    between atoms: _520  and  _521
REMARK  196  A    between atoms: _520  and  _523
REMARK  197  A    between atoms: _523  and  _524
REMARK  198  A    between atoms: _527  and  _529
REMARK  199  A    between atoms: _529  and  _530
REMARK  200  A    between atoms: _533  and  _535
REMARK  201  A    between atoms: _535  and  _536
REMARK  202  A    between atoms: _535  and  _538
REMARK  203  A    between atoms: _538  and  _539
REMARK  204  A    between atoms: _541  and  _543
REMARK  205  A    between atoms: _543  and  _544
REMARK  206  A    between atoms: _543  and  _546
REMARK  207  A    between atoms: _546  and  _547
REMARK  208  A    between atoms: _547  and  _548
REMARK  209  A    between atoms: _550  and  _552
REMARK  210  A    between atoms: _552  and  _553
REMARK  211  A    between atoms: _552  and  _555
REMARK  212  A    between atoms: _555  and  _556
REMARK  213  A    between atoms: _562  and  _564
REMARK  214  A    between atoms: _564  and  _565
REMARK  215  A    between atoms: _564  and  _567
REMARK  216  A    between atoms: _567  and  _568
REMARK  217  A    between atoms: _578  and  _580
REMARK  218  A    between atoms: _580  and  _581
REMARK  219  A    between atoms: _580  and  _583
REMARK  220  A    between atoms: _583  and  _584
REMARK  221  A    between atoms: _589  and  _591
REMARK  222  A    between atoms: _591  and  _592
REMARK  223  A    between atoms: _591  and  _594
REMARK  224  A    between atoms: _594  and  _595
REMARK  225  A    between atoms: _595  and  _596
REMARK                            x       y       z     vdW  Elec       q    Type
REMARK                         _______ _______ _______ _____ _____    ______ ____
ROOT
ATOM      1  O   HOH     1      17.209  37.038  97.077  0.00  0.00    +0.000 OA
ENDROOT
TORSDOF 0
REMARK  Name = ../refined-set-2016/1ur9/1ur9_pocket.pdb
REMARK  225 active torsions:
REMARK  status: ('A' for Active; 'I' for Inactive)
REMARK    1  A    between atoms: _1  and  _3
REMARK    2  A    between atoms: _3  and  _4
REMARK    3  A    between atoms: _3  and  _6
REMARK    4  A    between atoms: _6  and  _7
REMARK    5  A    between atoms: _12  and  _13
REMARK    6  A    between atoms: _15  and  _17
REMARK    7  A    between atoms: _17  and  _18
REMARK    8  A    between atoms: _17  and  _20
REMARK    9  A    between atoms: _20  and  _21
REMARK   10  A    between atoms: _28  and  _29
REMARK   11  A    between atoms: _34  and  _36
REMARK   12  A    between atoms: _36  and  _37
REMARK   13  A    between atoms: _36  and  _39
REMARK   14  A    between atoms: _39  and  _40
REMARK   15  A    between atoms: _45  and  _47
REMARK   16  A    between atoms: _47  and  _48
REMARK   17  A    between atoms: _47  and  _50
REMARK   18  A    between atoms: _50  and  _51
REMARK   19  A    between atoms: _53  and  _55
REMARK   20  A    between atoms: _55  and  _56
REMARK   21  A    between atoms: _55  and  _58
REMARK   22  A    between atoms: _58  and  _59
REMARK   23  A    between atoms: _65  and  _67
REMARK   24  A    between atoms: _67  and  _68
REMARK   25  A    between atoms: _67  and  _70
REMARK   26  A    between atoms: _70  and  _71
REMARK   27  A    between atoms: _73  and  _75
REMARK   28  A    between atoms: _75  and  _76
REMARK   29  A    between atoms: _78  and  _80
REMARK   30  A    between atoms: _80  and  _81
REMARK   31  A    between atoms: _83  and  _85
REMARK   32  A    between atoms: _85  and  _86
REMARK   33  A    between atoms: _85  and  _88
REMARK   34  A    between atoms: _88  and  _89
REMARK   35  A    between atoms: _99  and  _101
REMARK   36  A    between atoms: _101  and  _102
REMARK   37  A    between atoms: _101  and  _104
REMARK   38  A    between atoms: _104  and  _105
REMARK   39  A    between atoms: _110  and  _111
REMARK   40  A    between atoms: _113  and  _115
REMARK   41  A    between atoms: _115  and  _116
REMARK   42  A    between atoms: _115  and  _118
REMARK   43  A    between atoms: _118  and  _119
REMARK   44  A    between atoms: _124  and  _125
REMARK   45  A    between atoms: _127  and  _129
REMARK   46  A    between atoms: _129  and  _130
REMARK   47  A    between atoms: _129  and  _132
REMARK   48  A    between atoms: _132  and  _133
REMARK   49  A    between atoms: _135  and  _137
REMARK   50  A    between atoms: _137  and  _138
REMARK   51  A    between atoms: _137  and  _140
REMARK   52  A    between atoms: _140  and  _141
REMARK   53  A    between atoms: _146  and  _148
REMARK   54  A    between atoms: _148  and  _149
REMARK   55  A    between atoms: _148  and  _151
REMARK   56  A    between atoms: _151  and  _152
REMARK   57  A    between atoms: _155  and  _157
REMARK   58  A    between atoms: _157  and  _158
REMARK   59  A    between atoms: _157  and  _160
REMARK   60  A    between atoms: _160  and  _161
REMARK   61  A    between atoms: _164  and  _166
REMARK   62  A    between atoms: _166  and  _167
REMARK   63  A    between atoms: _166  and  _169
REMARK   64  A    between atoms: _169  and  _170
REMARK   65  A    between atoms: _175  and  _177
REMARK   66  A    between atoms: _177  and  _178
REMARK   67  A    between atoms: _177  and  _180
REMARK   68  A    between atoms: _180  and  _181
REMARK   69  A    between atoms: _191  and  _193
REMARK   70  A    between atoms: _193  and  _194
REMARK   71  A    between atoms: _193  and  _196
REMARK   72  A    between atoms: _196  and  _197
REMARK   73  A    between atoms: _197  and  _198
REMARK   74  A    between atoms: _201  and  _203
REMARK   75  A    between atoms: _203  and  _204
REMARK   76  A    between atoms: _203  and  _206
REMARK   77  A    between atoms: _206  and  _207
REMARK   78  A    between atoms: _212  and  _213
REMARK   79  A    between atoms: _215  and  _217
REMARK   80  A    between atoms: _217  and  _218
REMARK   81  A    between atoms: _217  and  _220
REMARK   82  A    between atoms: _220  and  _221
REMARK   83  A    between atoms: _224  and  _226
REMARK   84  A    between atoms: _226  and  _227
REMARK   85  A    between atoms: _230  and  _232
REMARK   86  A    between atoms: _232  and  _233
REMARK   87  A    between atoms: _235  and  _237
REMARK   88  A    between atoms: _237  and  _238
REMARK   89  A    between atoms: _241  and  _243
REMARK   90  A    between atoms: _243  and  _244
REMARK   91  A    between atoms: _246  and  _248
REMARK   92  A    between atoms: _248  and  _249
REMARK   93  A    between atoms: _251  and  _253
REMARK   94  A    between atoms: _253  and  _254
REMARK   95  A    between atoms: _253  and  _256
REMARK   96  A    between atoms: _256  and  _257
REMARK   97  A    between atoms: _263  and  _265
REMARK   98  A    between atoms: _265  and  _266
REMARK   99  A    between atoms: _265  and  _268
REMARK  100  A    between atoms: _268  and  _269
REMARK  101  A    between atoms: _275  and  _277
REMARK  102  A    between atoms: _277  and  _278
REMARK  103  A    between atoms: _277  and  _280
REMARK  104  A    between atoms: _280  and  _281
REMARK  105  A    between atoms: _281  and  _282
REMARK  106  A    between atoms: _282  and  _283
REMARK  107  A    between atoms: _292  and  _294
REMARK  108  A    between atoms: _294  and  _295
REMARK  109  A    between atoms: _294  and  _297
REMARK  110  A    between atoms: _297  and  _298
REMARK  111  A    between atoms: _303  and  _305
REMARK  112  A    between atoms: _305  and  _306
REMARK  113  A    between atoms: _305  and  _308
REMARK  114  A    between atoms: _308  and  _309
REMARK  115  A    between atoms: _312  and  _314
REMARK  116  A    between atoms: _314  and  _315
REMARK  117  A    between atoms: _314  and  _317
REMARK  118  A    between atoms: _317  and  _318
REMARK  119  A    between atoms: _318  and  _319
REMARK  120  A    between atoms: _321  and  _323
REMARK  121  A    between atoms: _323  and  _324
REMARK  122  A    between atoms: _323  and  _326
REMARK  123  A    between atoms: _326  and  _327
REMARK  124  A    between atoms: _330  and  _332
REMARK  125  A    between atoms: _332  and  _333
REMARK  126  A    between atoms: _332  and  _335
REMARK  127  A    between atoms: _335  and  _336
REMARK  128  A    between atoms: _341  and  _342
REMARK  129  A    between atoms: _344  and  _346
REMARK  130  A    between atoms: _346  and  _347
REMARK  131  A    between atoms: _346  and  _349
REMARK  132  A    between atoms: _349  and  _350
REMARK  133  A    between atoms: _353  and  _355
REMARK  134  A    between atoms: _355  and  _356
REMARK  135  A    between atoms: _355  and  _358
REMARK  136  A    between atoms: _358  and  _359
REMARK  137  A    between atoms: _362  and  _364
REMARK  138  A    between atoms: _364  and  _365
REMARK  139  A    between atoms: _368  and  _370
REMARK  140  A    between atoms: _370  and  _371
REMARK  141  A    between atoms: _373  and  _375
REMARK  142  A    between atoms: _375  and  _376
REMARK  143  A    between atoms: _375  and  _378
REMARK  144  A    between atoms: _378  and  _379
REMARK  145  A    between atoms: _389  and  _391
REMARK  146  A    between atoms: _391  and  _392
REMARK  147  A    between atoms: _391  and  _394
REMARK  148  A    between atoms: _394  and  _395
REMARK  149  A    between atoms: _395  and  _396
REMARK  150  A    between atoms: _399  and  _401
REMARK  151  A    between atoms: _401  and  _402
REMARK  152  A    between atoms: _401  and  _404
REMARK  153  A    between atoms: _404  and  _405
REMARK  154  A    between atoms: _405  and  _406
REMARK  155  A    between atoms: _411  and  _413
REMARK  156  A    between atoms: _413  and  _414
REMARK  157  A    between atoms: _413  and  _416
REMARK  158  A    between atoms: _420  and  _421
REMARK  159  A    between atoms: _426  and  _428
REMARK  160  A    between atoms: _428  and  _429
REMARK  161  A    between atoms: _428  and  _431
REMARK  162  A    between atoms: _431  and  _432
REMARK  163  A    between atoms: _438  and  _440
REMARK  164  A    between atoms: _440  and  _441
REMARK  165  A    between atoms: _440  and  _443
REMARK  166  A    between atoms: _443  and  _444
REMARK  167  A    between atoms: _449  and  _450
REMARK  168  A    between atoms: _452  and  _454
REMARK  169  A    between atoms: _454  and  _455
REMARK  170  A    between atoms: _457  and  _459
REMARK  171  A    between atoms: _459  and  _460
REMARK  172  A    between atoms: _459  and  _462
REMARK  173  A    between atoms: _462  and  _463
REMARK  174  A    between atoms: _463  and  _464
REMARK  175  A    between atoms: _464  and  _465
REMARK  176  A    between atoms: _474  and  _476
REMARK  177  A    between atoms: _476  and  _477
REMARK  178  A    between atoms: _476  and  _479
REMARK  179  A    between atoms: _479  and  _480
REMARK  180  A    between atoms: _483  and  _485
REMARK  181  A    between atoms: _485  and  _486
REMARK  182  A    between atoms: _485  and  _488
REMARK  183  A    between atoms: _488  and  _489
REMARK  184  A    between atoms: _492  and  _494
REMARK  185  A    between atoms: _494  and  _495
REMARK  186  A    between atoms: _494  and  _497
REMARK  187  A    between atoms: _497  and  _498
REMARK  188  A    between atoms: _501  and  _503
REMARK  189  A    between atoms: _503  and  _504
REMARK  190  A    between atoms: _503  and  _506
REMARK  191  A    between atoms: _506  and  _507
REMARK  192  A    between atoms: _507  and  _508
REMARK  193  A    between atoms: _508  and  _509
REMARK  194  A    between atoms: _518  and  _520
REMARK  195  A    between atoms: _520  and  _521
REMARK  196  A    between atoms: _520  and  _523
REMARK  197  A    between atoms: _523  and  _524
REMARK  198  A    between atoms: _527  and  _529
REMARK  199  A    between atoms: _529  and  _530
REMARK  200  A    between atoms: _533  and  _535
REMARK  201  A    between atoms: _535  and  _536
REMARK  202  A    between atoms: _535  and  _538
REMARK  203  A    between atoms: _538  and  _539
REMARK  204  A    between atoms: _541  and  _543
REMARK  205  A    between atoms: _543  and  _544
REMARK  206  A    between atoms: _543  and  _546
REMARK  207  A    between atoms: _546  and  _547
REMARK  208  A    between atoms: _547  and  _548
REMARK  209  A    between atoms: _550  and  _552
REMARK  210  A    between atoms: _552  and  _553
REMARK  211  A    between atoms: _552  and  _555
REMARK  212  A    between atoms: _555  and  _556
REMARK  213  A    between atoms: _562  and  _564
REMARK  214  A    between atoms: _564  and  _565
REMARK  215  A    between atoms: _564  and  _567
REMARK  216  A    between atoms: _567  and  _568
REMARK  217  A    between atoms: _578  and  _580
REMARK  218  A    between atoms: _580  and  _581
REMARK  219  A    between atoms: _580  and  _583
REMARK  220  A    between atoms: _583  and  _584
REMARK  221  A    between atoms: _589  and  _591
REMARK  222  A    between atoms: _591  and  _592
REMARK  223  A    between atoms: _591  and  _594
REMARK  224  A    between atoms: _594  and  _595
REMARK  225  A    between atoms: _595  and  _596
REMARK                            x       y       z     vdW  Elec       q    Type
REMARK                         _______ _______ _______ _____ _____    ______ ____
ROOT
ATOM      1  O   HOH     1      18.348  35.256 112.570  0.00  0.00    +0.000 OA
ENDROOT
TORSDOF 0
REMARK  Name = ../refined-set-2016/1ur9/1ur9_pocket.pdb
REMARK  225 active torsions:
REMARK  status: ('A' for Active; 'I' for Inactive)
REMARK    1  A    between atoms: _1  and  _3
REMARK    2  A    between atoms: _3  and  _4
REMARK    3  A    between atoms: _3  and  _6
REMARK    4  A    between atoms: _6  and  _7
REMARK    5  A    between atoms: _12  and  _13
REMARK    6  A    between atoms: _15  and  _17
REMARK    7  A    between atoms: _17  and  _18
REMARK    8  A    between atoms: _17  and  _20
REMARK    9  A    between atoms: _20  and  _21
REMARK   10  A    between atoms: _28  and  _29
REMARK   11  A    between atoms: _34  and  _36
REMARK   12  A    between atoms: _36  and  _37
REMARK   13  A    between atoms: _36  and  _39
REMARK   14  A    between atoms: _39  and  _40
REMARK   15  A    between atoms: _45  and  _47
REMARK   16  A    between atoms: _47  and  _48
REMARK   17  A    between atoms: _47  and  _50
REMARK   18  A    between atoms: _50  and  _51
REMARK   19  A    between atoms: _53  and  _55
REMARK   20  A    between atoms: _55  and  _56
REMARK   21  A    between atoms: _55  and  _58
REMARK   22  A    between atoms: _58  and  _59
REMARK   23  A    between atoms: _65  and  _67
REMARK   24  A    between atoms: _67  and  _68
REMARK   25  A    between atoms: _67  and  _70
REMARK   26  A    between atoms: _70  and  _71
REMARK   27  A    between atoms: _73  and  _75
REMARK   28  A    between atoms: _75  and  _76
REMARK   29  A    between atoms: _78  and  _80
REMARK   30  A    between atoms: _80  and  _81
REMARK   31  A    between atoms: _83  and  _85
REMARK   32  A    between atoms: _85  and  _86
REMARK   33  A    between atoms: _85  and  _88
REMARK   34  A    between atoms: _88  and  _89
REMARK   35  A    between atoms: _99  and  _101
REMARK   36  A    between atoms: _101  and  _102
REMARK   37  A    between atoms: _101  and  _104
REMARK   38  A    between atoms: _104  and  _105
REMARK   39  A    between atoms: _110  and  _111
REMARK   40  A    between atoms: _113  and  _115
REMARK   41  A    between atoms: _115  and  _116
REMARK   42  A    between atoms: _115  and  _118
REMARK   43  A    between atoms: _118  and  _119
REMARK   44  A    between atoms: _124  and  _125
REMARK   45  A    between atoms: _127  and  _129
REMARK   46  A    between atoms: _129  and  _130
REMARK   47  A    between atoms: _129  and  _132
REMARK   48  A    between atoms: _132  and  _133
REMARK   49  A    between atoms: _135  and  _137
REMARK   50  A    between atoms: _137  and  _138
REMARK   51  A    between atoms: _137  and  _140
REMARK   52  A    between atoms: _140  and  _141
REMARK   53  A    between atoms: _146  and  _148
REMARK   54  A    between atoms: _148  and  _149
REMARK   55  A    between atoms: _148  and  _151
REMARK   56  A    between atoms: _151  and  _152
REMARK   57  A    between atoms: _155  and  _157
REMARK   58  A    between atoms: _157  and  _158
REMARK   59  A    between atoms: _157  and  _160
REMARK   60  A    between atoms: _160  and  _161
REMARK   61  A    between atoms: _164  and  _166
REMARK   62  A    between atoms: _166  and  _167
REMARK   63  A    between atoms: _166  and  _169
REMARK   64  A    between atoms: _169  and  _170
REMARK   65  A    between atoms: _175  and  _177
REMARK   66  A    between atoms: _177  and  _178
REMARK   67  A    between atoms: _177  and  _180
REMARK   68  A    between atoms: _180  and  _181
REMARK   69  A    between atoms: _191  and  _193
REMARK   70  A    between atoms: _193  and  _194
REMARK   71  A    between atoms: _193  and  _196
REMARK   72  A    between atoms: _196  and  _197
REMARK   73  A    between atoms: _197  and  _198
REMARK   74  A    between atoms: _201  and  _203
REMARK   75  A    between atoms: _203  and  _204
REMARK   76  A    between atoms: _203  and  _206
REMARK   77  A    between atoms: _206  and  _207
REMARK   78  A    between atoms: _212  and  _213
REMARK   79  A    between atoms: _215  and  _217
REMARK   80  A    between atoms: _217  and  _218
REMARK   81  A    between atoms: _217  and  _220
REMARK   82  A    between atoms: _220  and  _221
REMARK   83  A    between atoms: _224  and  _226
REMARK   84  A    between atoms: _226  and  _227
REMARK   85  A    between atoms: _230  and  _232
REMARK   86  A    between atoms: _232  and  _233
REMARK   87  A    between atoms: _235  and  _237
REMARK   88  A    between atoms: _237  and  _238
REMARK   89  A    between atoms: _241  and  _243
REMARK   90  A    between atoms: _243  and  _244
REMARK   91  A    between atoms: _246  and  _248
REMARK   92  A    between atoms: _248  and  _249
REMARK   93  A    between atoms: _251  and  _253
REMARK   94  A    between atoms: _253  and  _254
REMARK   95  A    between atoms: _253  and  _256
REMARK   96  A    between atoms: _256  and  _257
REMARK   97  A    between atoms: _263  and  _265
REMARK   98  A    between atoms: _265  and  _266
REMARK   99  A    between atoms: _265  and  _268
REMARK  100  A    between atoms: _268  and  _269
REMARK  101  A    between atoms: _275  and  _277
REMARK  102  A    between atoms: _277  and  _278
REMARK  103  A    between atoms: _277  and  _280
REMARK  104  A    between atoms: _280  and  _281
REMARK  105  A    between atoms: _281  and  _282
REMARK  106  A    between atoms: _282  and  _283
REMARK  107  A    between atoms: _292  and  _294
REMARK  108  A    between atoms: _294  and  _295
REMARK  109  A    between atoms: _294  and  _297
REMARK  110  A    between atoms: _297  and  _298
REMARK  111  A    between atoms: _303  and  _305
REMARK  112  A    between atoms: _305  and  _306
REMARK  113  A    between atoms: _305  and  _308
REMARK  114  A    between atoms: _308  and  _309
REMARK  115  A    between atoms: _312  and  _314
REMARK  116  A    between atoms: _314  and  _315
REMARK  117  A    between atoms: _314  and  _317
REMARK  118  A    between atoms: _317  and  _318
REMARK  119  A    between atoms: _318  and  _319
REMARK  120  A    between atoms: _321  and  _323
REMARK  121  A    between atoms: _323  and  _324
REMARK  122  A    between atoms: _323  and  _326
REMARK  123  A    between atoms: _326  and  _327
REMARK  124  A    between atoms: _330  and  _332
REMARK  125  A    between atoms: _332  and  _333
REMARK  126  A    between atoms: _332  and  _335
REMARK  127  A    between atoms: _335  and  _336
REMARK  128  A    between atoms: _341  and  _342
REMARK  129  A    between atoms: _344  and  _346
REMARK  130  A    between atoms: _346  and  _347
REMARK  131  A    between atoms: _346  and  _349
REMARK  132  A    between atoms: _349  and  _350
REMARK  133  A    between atoms: _353  and  _355
REMARK  134  A    between atoms: _355  and  _356
REMARK  135  A    between atoms: _355  and  _358
REMARK  136  A    between atoms: _358  and  _359
REMARK  137  A    between atoms: _362  and  _364
REMARK  138  A    between atoms: _364  and  _365
REMARK  139  A    between atoms: _368  and  _370
REMARK  140  A    between atoms: _370  and  _371
REMARK  141  A    between atoms: _373  and  _375
REMARK  142  A    between atoms: _375  and  _376
REMARK  143  A    between atoms: _375  and  _378
REMARK  144  A    between atoms: _378  and  _379
REMARK  145  A    between atoms: _389  and  _391
REMARK  146  A    between atoms: _391  and  _392
REMARK  147  A    between atoms: _391  and  _394
REMARK  148  A    between atoms: _394  and  _395
REMARK  149  A    between atoms: _395  and  _396
REMARK  150  A    between atoms: _399  and  _401
REMARK  151  A    between atoms: _401  and  _402
REMARK  152  A    between atoms: _401  and  _404
REMARK  153  A    between atoms: _404  and  _405
REMARK  154  A    between atoms: _405  and  _406
REMARK  155  A    between atoms: _411  and  _413
REMARK  156  A    between atoms: _413  and  _414
REMARK  157  A    between atoms: _413  and  _416
REMARK  158  A    between atoms: _420  and  _421
REMARK  159  A    between atoms: _426  and  _428
REMARK  160  A    between atoms: _428  and  _429
REMARK  161  A    between atoms: _428  and  _431
REMARK  162  A    between atoms: _431  and  _432
REMARK  163  A    between atoms: _438  and  _440
REMARK  164  A    between atoms: _440  and  _441
REMARK  165  A    between atoms: _440  and  _443
REMARK  166  A    between atoms: _443  and  _444
REMARK  167  A    between atoms: _449  and  _450
REMARK  168  A    between atoms: _452  and  _454
REMARK  169  A    between atoms: _454  and  _455
REMARK  170  A    between atoms: _457  and  _459
REMARK  171  A    between atoms: _459  and  _460
REMARK  172  A    between atoms: _459  and  _462
REMARK  173  A    between atoms: _462  and  _463
REMARK  174  A    between atoms: _463  and  _464
REMARK  175  A    between atoms: _464  and  _465
REMARK  176  A    between atoms: _474  and  _476
REMARK  177  A    between atoms: _476  and  _477
REMARK  178  A    between atoms: _476  and  _479
REMARK  179  A    between atoms: _479  and  _480
REMARK  180  A    between atoms: _483  and  _485
REMARK  181  A    between atoms: _485  and  _486
REMARK  182  A    between atoms: _485  and  _488
REMARK  183  A    between atoms: _488  and  _489
REMARK  184  A    between atoms: _492  and  _494
REMARK  185  A    between atoms: _494  and  _495
REMARK  186  A    between atoms: _494  and  _497
REMARK  187  A    between atoms: _497  and  _498
REMARK  188  A    between atoms: _501  and  _503
REMARK  189  A    between atoms: _503  and  _504
REMARK  190  A    between atoms: _503  and  _506
REMARK  191  A    between atoms: _506  and  _507
REMARK  192  A    between atoms: _507  and  _508
REMARK  193  A    between atoms: _508  and  _509
REMARK  194  A    between atoms: _518  and  _520
REMARK  195  A    between atoms: _520  and  _521
REMARK  196  A    between atoms: _520  and  _523
REMARK  197  A    between atoms: _523  and  _524
REMARK  198  A    between atoms: _527  and  _529
REMARK  199  A    between atoms: _529  and  _530
REMARK  200  A    between atoms: _533  and  _535
REMARK  201  A    between atoms: _535  and  _536
REMARK  202  A    between atoms: _535  and  _538
REMARK  203  A    between atoms: _538  and  _539
REMARK  204  A    between atoms: _541  and  _543
REMARK  205  A    between atoms: _543  and  _544
REMARK  206  A    between atoms: _543  and  _546
REMARK  207  A    between atoms: _546  and  _547
REMARK  208  A    between atoms: _547  and  _548
REMARK  209  A    between atoms: _550  and  _552
REMARK  210  A    between atoms: _552  and  _553
REMARK  211  A    between atoms: _552  and  _555
REMARK  212  A    between atoms: _555  and  _556
REMARK  213  A    between atoms: _562  and  _564
REMARK  214  A    between atoms: _564  and  _565
REMARK  215  A    between atoms: _564  and  _567
REMARK  216  A    between atoms: _567  and  _568
REMARK  217  A    between atoms: _578  and  _580
REMARK  218  A    between atoms: _580  and  _581
REMARK  219  A    between atoms: _580  and  _583
REMARK  220  A    between atoms: _583  and  _584
REMARK  221  A    between atoms: _589  and  _591
REMARK  222  A    between atoms: _591  and  _592
REMARK  223  A    between atoms: _591  and  _594
REMARK  224  A    between atoms: _594  and  _595
REMARK  225  A    between atoms: _595  and  _596
REMARK                            x       y       z     vdW  Elec       q    Type
REMARK                         _______ _______ _______ _____ _____    ______ ____
ROOT
ATOM      1  O   HOH     1      19.292  30.326 107.037  0.00  0.00    +0.000 OA
ENDROOT
TORSDOF 0
REMARK  Name = ../refined-set-2016/1ur9/1ur9_pocket.pdb
REMARK  225 active torsions:
REMARK  status: ('A' for Active; 'I' for Inactive)
REMARK    1  A    between atoms: _1  and  _3
REMARK    2  A    between atoms: _3  and  _4
REMARK    3  A    between atoms: _3  and  _6
REMARK    4  A    between atoms: _6  and  _7
REMARK    5  A    between atoms: _12  and  _13
REMARK    6  A    between atoms: _15  and  _17
REMARK    7  A    between atoms: _17  and  _18
REMARK    8  A    between atoms: _17  and  _20
REMARK    9  A    between atoms: _20  and  _21
REMARK   10  A    between atoms: _28  and  _29
REMARK   11  A    between atoms: _34  and  _36
REMARK   12  A    between atoms: _36  and  _37
REMARK   13  A    between atoms: _36  and  _39
REMARK   14  A    between atoms: _39  and  _40
REMARK   15  A    between atoms: _45  and  _47
REMARK   16  A    between atoms: _47  and  _48
REMARK   17  A    between atoms: _47  and  _50
REMARK   18  A    between atoms: _50  and  _51
REMARK   19  A    between atoms: _53  and  _55
REMARK   20  A    between atoms: _55  and  _56
REMARK   21  A    between atoms: _55  and  _58
REMARK   22  A    between atoms: _58  and  _59
REMARK   23  A    between atoms: _65  and  _67
REMARK   24  A    between atoms: _67  and  _68
REMARK   25  A    between atoms: _67  and  _70
REMARK   26  A    between atoms: _70  and  _71
REMARK   27  A    between atoms: _73  and  _75
REMARK   28  A    between atoms: _75  and  _76
REMARK   29  A    between atoms: _78  and  _80
REMARK   30  A    between atoms: _80  and  _81
REMARK   31  A    between atoms: _83  and  _85
REMARK   32  A    between atoms: _85  and  _86
REMARK   33  A    between atoms: _85  and  _88
REMARK   34  A    between atoms: _88  and  _89
REMARK   35  A    between atoms: _99  and  _101
REMARK   36  A    between atoms: _101  and  _102
REMARK   37  A    between atoms: _101  and  _104
REMARK   38  A    between atoms: _104  and  _105
REMARK   39  A    between atoms: _110  and  _111
REMARK   40  A    between atoms: _113  and  _115
REMARK   41  A    between atoms: _115  and  _116
REMARK   42  A    between atoms: _115  and  _118
REMARK   43  A    between atoms: _118  and  _119
REMARK   44  A    between atoms: _124  and  _125
REMARK   45  A    between atoms: _127  and  _129
REMARK   46  A    between atoms: _129  and  _130
REMARK   47  A    between atoms: _129  and  _132
REMARK   48  A    between atoms: _132  and  _133
REMARK   49  A    between atoms: _135  and  _137
REMARK   50  A    between atoms: _137  and  _138
REMARK   51  A    between atoms: _137  and  _140
REMARK   52  A    between atoms: _140  and  _141
REMARK   53  A    between atoms: _146  and  _148
REMARK   54  A    between atoms: _148  and  _149
REMARK   55  A    between atoms: _148  and  _151
REMARK   56  A    between atoms: _151  and  _152
REMARK   57  A    between atoms: _155  and  _157
REMARK   58  A    between atoms: _157  and  _158
REMARK   59  A    between atoms: _157  and  _160
REMARK   60  A    between atoms: _160  and  _161
REMARK   61  A    between atoms: _164  and  _166
REMARK   62  A    between atoms: _166  and  _167
REMARK   63  A    between atoms: _166  and  _169
REMARK   64  A    between atoms: _169  and  _170
REMARK   65  A    between atoms: _175  and  _177
REMARK   66  A    between atoms: _177  and  _178
REMARK   67  A    between atoms: _177  and  _180
REMARK   68  A    between atoms: _180  and  _181
REMARK   69  A    between atoms: _191  and  _193
REMARK   70  A    between atoms: _193  and  _194
REMARK   71  A    between atoms: _193  and  _196
REMARK   72  A    between atoms: _196  and  _197
REMARK   73  A    between atoms: _197  and  _198
REMARK   74  A    between atoms: _201  and  _203
REMARK   75  A    between atoms: _203  and  _204
REMARK   76  A    between atoms: _203  and  _206
REMARK   77  A    between atoms: _206  and  _207
REMARK   78  A    between atoms: _212  and  _213
REMARK   79  A    between atoms: _215  and  _217
REMARK   80  A    between atoms: _217  and  _218
REMARK   81  A    between atoms: _217  and  _220
REMARK   82  A    between atoms: _220  and  _221
REMARK   83  A    between atoms: _224  and  _226
REMARK   84  A    between atoms: _226  and  _227
REMARK   85  A    between atoms: _230  and  _232
REMARK   86  A    between atoms: _232  and  _233
REMARK   87  A    between atoms: _235  and  _237
REMARK   88  A    between atoms: _237  and  _238
REMARK   89  A    between atoms: _241  and  _243
REMARK   90  A    between atoms: _243  and  _244
REMARK   91  A    between atoms: _246  and  _248
REMARK   92  A    between atoms: _248  and  _249
REMARK   93  A    between atoms: _251  and  _253
REMARK   94  A    between atoms: _253  and  _254
REMARK   95  A    between atoms: _253  and  _256
REMARK   96  A    between atoms: _256  and  _257
REMARK   97  A    between atoms: _263  and  _265
REMARK   98  A    between atoms: _265  and  _266
REMARK   99  A    between atoms: _265  and  _268
REMARK  100  A    between atoms: _268  and  _269
REMARK  101  A    between atoms: _275  and  _277
REMARK  102  A    between atoms: _277  and  _278
REMARK  103  A    between atoms: _277  and  _280
REMARK  104  A    between atoms: _280  and  _281
REMARK  105  A    between atoms: _281  and  _282
REMARK  106  A    between atoms: _282  and  _283
REMARK  107  A    between atoms: _292  and  _294
REMARK  108  A    between atoms: _294  and  _295
REMARK  109  A    between atoms: _294  and  _297
REMARK  110  A    between atoms: _297  and  _298
REMARK  111  A    between atoms: _303  and  _305
REMARK  112  A    between atoms: _305  and  _306
REMARK  113  A    between atoms: _305  and  _308
REMARK  114  A    between atoms: _308  and  _309
REMARK  115  A    between atoms: _312  and  _314
REMARK  116  A    between atoms: _314  and  _315
REMARK  117  A    between atoms: _314  and  _317
REMARK  118  A    between atoms: _317  and  _318
REMARK  119  A    between atoms: _318  and  _319
REMARK  120  A    between atoms: _321  and  _323
REMARK  121  A    between atoms: _323  and  _324
REMARK  122  A    between atoms: _323  and  _326
REMARK  123  A    between atoms: _326  and  _327
REMARK  124  A    between atoms: _330  and  _332
REMARK  125  A    between atoms: _332  and  _333
REMARK  126  A    between atoms: _332  and  _335
REMARK  127  A    between atoms: _335  and  _336
REMARK  128  A    between atoms: _341  and  _342
REMARK  129  A    between atoms: _344  and  _346
REMARK  130  A    between atoms: _346  and  _347
REMARK  131  A    between atoms: _346  and  _349
REMARK  132  A    between atoms: _349  and  _350
REMARK  133  A    between atoms: _353  and  _355
REMARK  134  A    between atoms: _355  and  _356
REMARK  135  A    between atoms: _355  and  _358
REMARK  136  A    between atoms: _358  and  _359
REMARK  137  A    between atoms: _362  and  _364
REMARK  138  A    between atoms: _364  and  _365
REMARK  139  A    between atoms: _368  and  _370
REMARK  140  A    between atoms: _370  and  _371
REMARK  141  A    between atoms: _373  and  _375
REMARK  142  A    between atoms: _375  and  _376
REMARK  143  A    between atoms: _375  and  _378
REMARK  144  A    between atoms: _378  and  _379
REMARK  145  A    between atoms: _389  and  _391
REMARK  146  A    between atoms: _391  and  _392
REMARK  147  A    between atoms: _391  and  _394
REMARK  148  A    between atoms: _394  and  _395
REMARK  149  A    between atoms: _395  and  _396
REMARK  150  A    between atoms: _399  and  _401
REMARK  151  A    between atoms: _401  and  _402
REMARK  152  A    between atoms: _401  and  _404
REMARK  153  A    between atoms: _404  and  _405
REMARK  154  A    between atoms: _405  and  _406
REMARK  155  A    between atoms: _411  and  _413
REMARK  156  A    between atoms: _413  and  _414
REMARK  157  A    between atoms: _413  and  _416
REMARK  158  A    between atoms: _420  and  _421
REMARK  159  A    between atoms: _426  and  _428
REMARK  160  A    between atoms: _428  and  _429
REMARK  161  A    between atoms: _428  and  _431
REMARK  162  A    between atoms: _431  and  _432
REMARK  163  A    between atoms: _438  and  _440
REMARK  164  A    between atoms: _440  and  _441
REMARK  165  A    between atoms: _440  and  _443
REMARK  166  A    between atoms: _443  and  _444
REMARK  167  A    between atoms: _449  and  _450
REMARK  168  A    between atoms: _452  and  _454
REMARK  169  A    between atoms: _454  and  _455
REMARK  170  A    between atoms: _457  and  _459
REMARK  171  A    between atoms: _459  and  _460
REMARK  172  A    between atoms: _459  and  _462
REMARK  173  A    between atoms: _462  and  _463
REMARK  174  A    between atoms: _463  and  _464
REMARK  175  A    between atoms: _464  and  _465
REMARK  176  A    between atoms: _474  and  _476
REMARK  177  A    between atoms: _476  and  _477
REMARK  178  A    between atoms: _476  and  _479
REMARK  179  A    between atoms: _479  and  _480
REMARK  180  A    between atoms: _483  and  _485
REMARK  181  A    between atoms: _485  and  _486
REMARK  182  A    between atoms: _485  and  _488
REMARK  183  A    between atoms: _488  and  _489
REMARK  184  A    between atoms: _492  and  _494
REMARK  185  A    between atoms: _494  and  _495
REMARK  186  A    between atoms: _494  and  _497
REMARK  187  A    between atoms: _497  and  _498
REMARK  188  A    between atoms: _501  and  _503
REMARK  189  A    between atoms: _503  and  _504
REMARK  190  A    between atoms: _503  and  _506
REMARK  191  A    between atoms: _506  and  _507
REMARK  192  A    between atoms: _507  and  _508
REMARK  193  A    between atoms: _508  and  _509
REMARK  194  A    between atoms: _518  and  _520
REMARK  195  A    between atoms: _520  and  _521
REMARK  196  A    between atoms: _520  and  _523
REMARK  197  A    between atoms: _523  and  _524
REMARK  198  A    between atoms: _527  and  _529
REMARK  199  A    between atoms: _529  and  _530
REMARK  200  A    between atoms: _533  and  _535
REMARK  201  A    between atoms: _535  and  _536
REMARK  202  A    between atoms: _535  and  _538
REMARK  203  A    between atoms: _538  and  _539
REMARK  204  A    between atoms: _541  and  _543
REMARK  205  A    between atoms: _543  and  _544
REMARK  206  A    between atoms: _543  and  _546
REMARK  207  A    between atoms: _546  and  _547
REMARK  208  A    between atoms: _547  and  _548
REMARK  209  A    between atoms: _550  and  _552
REMARK  210  A    between atoms: _552  and  _553
REMARK  211  A    between atoms: _552  and  _555
REMARK  212  A    between atoms: _555  and  _556
REMARK  213  A    between atoms: _562  and  _564
REMARK  214  A    between atoms: _564  and  _565
REMARK  215  A    between atoms: _564  and  _567
REMARK  216  A    between atoms: _567  and  _568
REMARK  217  A    between atoms: _578  and  _580
REMARK  218  A    between atoms: _580  and  _581
REMARK  219  A    between atoms: _580  and  _583
REMARK  220  A    between atoms: _583  and  _584
REMARK  221  A    between atoms: _589  and  _591
REMARK  222  A    between atoms: _591  and  _592
REMARK  223  A    between atoms: _591  and  _594
REMARK  224  A    between atoms: _594  and  _595
REMARK  225  A    between atoms: _595  and  _596
REMARK                            x       y       z     vdW  Elec       q    Type
REMARK                         _______ _______ _______ _____ _____    ______ ____
ROOT
ATOM      1  O   HOH     1      21.214  32.661  98.579  0.00  0.00    +0.000 OA
ENDROOT
TORSDOF 0
REMARK  Name = ../refined-set-2016/1ur9/1ur9_pocket.pdb
REMARK  225 active torsions:
REMARK  status: ('A' for Active; 'I' for Inactive)
REMARK    1  A    between atoms: _1  and  _3
REMARK    2  A    between atoms: _3  and  _4
REMARK    3  A    between atoms: _3  and  _6
REMARK    4  A    between atoms: _6  and  _7
REMARK    5  A    between atoms: _12  and  _13
REMARK    6  A    between atoms: _15  and  _17
REMARK    7  A    between atoms: _17  and  _18
REMARK    8  A    between atoms: _17  and  _20
REMARK    9  A    between atoms: _20  and  _21
REMARK   10  A    between atoms: _28  and  _29
REMARK   11  A    between atoms: _34  and  _36
REMARK   12  A    between atoms: _36  and  _37
REMARK   13  A    between atoms: _36  and  _39
REMARK   14  A    between atoms: _39  and  _40
REMARK   15  A    between atoms: _45  and  _47
REMARK   16  A    between atoms: _47  and  _48
REMARK   17  A    between atoms: _47  and  _50
REMARK   18  A    between atoms: _50  and  _51
REMARK   19  A    between atoms: _53  and  _55
REMARK   20  A    between atoms: _55  and  _56
REMARK   21  A    between atoms: _55  and  _58
REMARK   22  A    between atoms: _58  and  _59
REMARK   23  A    between atoms: _65  and  _67
REMARK   24  A    between atoms: _67  and  _68
REMARK   25  A    between atoms: _67  and  _70
REMARK   26  A    between atoms: _70  and  _71
REMARK   27  A    between atoms: _73  and  _75
REMARK   28  A    between atoms: _75  and  _76
REMARK   29  A    between atoms: _78  and  _80
REMARK   30  A    between atoms: _80  and  _81
REMARK   31  A    between atoms: _83  and  _85
REMARK   32  A    between atoms: _85  and  _86
REMARK   33  A    between atoms: _85  and  _88
REMARK   34  A    between atoms: _88  and  _89
REMARK   35  A    between atoms: _99  and  _101
REMARK   36  A    between atoms: _101  and  _102
REMARK   37  A    between atoms: _101  and  _104
REMARK   38  A    between atoms: _104  and  _105
REMARK   39  A    between atoms: _110  and  _111
REMARK   40  A    between atoms: _113  and  _115
REMARK   41  A    between atoms: _115  and  _116
REMARK   42  A    between atoms: _115  and  _118
REMARK   43  A    between atoms: _118  and  _119
REMARK   44  A    between atoms: _124  and  _125
REMARK   45  A    between atoms: _127  and  _129
REMARK   46  A    between atoms: _129  and  _130
REMARK   47  A    between atoms: _129  and  _132
REMARK   48  A    between atoms: _132  and  _133
REMARK   49  A    between atoms: _135  and  _137
REMARK   50  A    between atoms: _137  and  _138
REMARK   51  A    between atoms: _137  and  _140
REMARK   52  A    between atoms: _140  and  _141
REMARK   53  A    between atoms: _146  and  _148
REMARK   54  A    between atoms: _148  and  _149
REMARK   55  A    between atoms: _148  and  _151
REMARK   56  A    between atoms: _151  and  _152
REMARK   57  A    between atoms: _155  and  _157
REMARK   58  A    between atoms: _157  and  _158
REMARK   59  A    between atoms: _157  and  _160
REMARK   60  A    between atoms: _160  and  _161
REMARK   61  A    between atoms: _164  and  _166
REMARK   62  A    between atoms: _166  and  _167
REMARK   63  A    between atoms: _166  and  _169
REMARK   64  A    between atoms: _169  and  _170
REMARK   65  A    between atoms: _175  and  _177
REMARK   66  A    between atoms: _177  and  _178
REMARK   67  A    between atoms: _177  and  _180
REMARK   68  A    between atoms: _180  and  _181
REMARK   69  A    between atoms: _191  and  _193
REMARK   70  A    between atoms: _193  and  _194
REMARK   71  A    between atoms: _193  and  _196
REMARK   72  A    between atoms: _196  and  _197
REMARK   73  A    between atoms: _197  and  _198
REMARK   74  A    between atoms: _201  and  _203
REMARK   75  A    between atoms: _203  and  _204
REMARK   76  A    between atoms: _203  and  _206
REMARK   77  A    between atoms: _206  and  _207
REMARK   78  A    between atoms: _212  and  _213
REMARK   79  A    between atoms: _215  and  _217
REMARK   80  A    between atoms: _217  and  _218
REMARK   81  A    between atoms: _217  and  _220
REMARK   82  A    between atoms: _220  and  _221
REMARK   83  A    between atoms: _224  and  _226
REMARK   84  A    between atoms: _226  and  _227
REMARK   85  A    between atoms: _230  and  _232
REMARK   86  A    between atoms: _232  and  _233
REMARK   87  A    between atoms: _235  and  _237
REMARK   88  A    between atoms: _237  and  _238
REMARK   89  A    between atoms: _241  and  _243
REMARK   90  A    between atoms: _243  and  _244
REMARK   91  A    between atoms: _246  and  _248
REMARK   92  A    between atoms: _248  and  _249
REMARK   93  A    between atoms: _251  and  _253
REMARK   94  A    between atoms: _253  and  _254
REMARK   95  A    between atoms: _253  and  _256
REMARK   96  A    between atoms: _256  and  _257
REMARK   97  A    between atoms: _263  and  _265
REMARK   98  A    between atoms: _265  and  _266
REMARK   99  A    between atoms: _265  and  _268
REMARK  100  A    between atoms: _268  and  _269
REMARK  101  A    between atoms: _275  and  _277
REMARK  102  A    between atoms: _277  and  _278
REMARK  103  A    between atoms: _277  and  _280
REMARK  104  A    between atoms: _280  and  _281
REMARK  105  A    between atoms: _281  and  _282
REMARK  106  A    between atoms: _282  and  _283
REMARK  107  A    between atoms: _292  and  _294
REMARK  108  A    between atoms: _294  and  _295
REMARK  109  A    between atoms: _294  and  _297
REMARK  110  A    between atoms: _297  and  _298
REMARK  111  A    between atoms: _303  and  _305
REMARK  112  A    between atoms: _305  and  _306
REMARK  113  A    between atoms: _305  and  _308
REMARK  114  A    between atoms: _308  and  _309
REMARK  115  A    between atoms: _312  and  _314
REMARK  116  A    between atoms: _314  and  _315
REMARK  117  A    between atoms: _314  and  _317
REMARK  118  A    between atoms: _317  and  _318
REMARK  119  A    between atoms: _318  and  _319
REMARK  120  A    between atoms: _321  and  _323
REMARK  121  A    between atoms: _323  and  _324
REMARK  122  A    between atoms: _323  and  _326
REMARK  123  A    between atoms: _326  and  _327
REMARK  124  A    between atoms: _330  and  _332
REMARK  125  A    between atoms: _332  and  _333
REMARK  126  A    between atoms: _332  and  _335
REMARK  127  A    between atoms: _335  and  _336
REMARK  128  A    between atoms: _341  and  _342
REMARK  129  A    between atoms: _344  and  _346
REMARK  130  A    between atoms: _346  and  _347
REMARK  131  A    between atoms: _346  and  _349
REMARK  132  A    between atoms: _349  and  _350
REMARK  133  A    between atoms: _353  and  _355
REMARK  134  A    between atoms: _355  and  _356
REMARK  135  A    between atoms: _355  and  _358
REMARK  136  A    between atoms: _358  and  _359
REMARK  137  A    between atoms: _362  and  _364
REMARK  138  A    between atoms: _364  and  _365
REMARK  139  A    between atoms: _368  and  _370
REMARK  140  A    between atoms: _370  and  _371
REMARK  141  A    between atoms: _373  and  _375
REMARK  142  A    between atoms: _375  and  _376
REMARK  143  A    between atoms: _375  and  _378
REMARK  144  A    between atoms: _378  and  _379
REMARK  145  A    between atoms: _389  and  _391
REMARK  146  A    between atoms: _391  and  _392
REMARK  147  A    between atoms: _391  and  _394
REMARK  148  A    between atoms: _394  and  _395
REMARK  149  A    between atoms: _395  and  _396
REMARK  150  A    between atoms: _399  and  _401
REMARK  151  A    between atoms: _401  and  _402
REMARK  152  A    between atoms: _401  and  _404
REMARK  153  A    between atoms: _404  and  _405
REMARK  154  A    between atoms: _405  and  _406
REMARK  155  A    between atoms: _411  and  _413
REMARK  156  A    between atoms: _413  and  _414
REMARK  157  A    between atoms: _413  and  _416
REMARK  158  A    between atoms: _420  and  _421
REMARK  159  A    between atoms: _426  and  _428
REMARK  160  A    between atoms: _428  and  _429
REMARK  161  A    between atoms: _428  and  _431
REMARK  162  A    between atoms: _431  and  _432
REMARK  163  A    between atoms: _438  and  _440
REMARK  164  A    between atoms: _440  and  _441
REMARK  165  A    between atoms: _440  and  _443
REMARK  166  A    between atoms: _443  and  _444
REMARK  167  A    between atoms: _449  and  _450
REMARK  168  A    between atoms: _452  and  _454
REMARK  169  A    between atoms: _454  and  _455
REMARK  170  A    between atoms: _457  and  _459
REMARK  171  A    between atoms: _459  and  _460
REMARK  172  A    between atoms: _459  and  _462
REMARK  173  A    between atoms: _462  and  _463
REMARK  174  A    between atoms: _463  and  _464
REMARK  175  A    between atoms: _464  and  _465
REMARK  176  A    between atoms: _474  and  _476
REMARK  177  A    between atoms: _476  and  _477
REMARK  178  A    between atoms: _476  and  _479
REMARK  179  A    between atoms: _479  and  _480
REMARK  180  A    between atoms: _483  and  _485
REMARK  181  A    between atoms: _485  and  _486
REMARK  182  A    between atoms: _485  and  _488
REMARK  183  A    between atoms: _488  and  _489
REMARK  184  A    between atoms: _492  and  _494
REMARK  185  A    between atoms: _494  and  _495
REMARK  186  A    between atoms: _494  and  _497
REMARK  187  A    between atoms: _497  and  _498
REMARK  188  A    between atoms: _501  and  _503
REMARK  189  A    between atoms: _503  and  _504
REMARK  190  A    between atoms: _503  and  _506
REMARK  191  A    between atoms: _506  and  _507
REMARK  192  A    between atoms: _507  and  _508
REMARK  193  A    between atoms: _508  and  _509
REMARK  194  A    between atoms: _518  and  _520
REMARK  195  A    between atoms: _520  and  _521
REMARK  196  A    between atoms: _520  and  _523
REMARK  197  A    between atoms: _523  and  _524
REMARK  198  A    between atoms: _527  and  _529
REMARK  199  A    between atoms: _529  and  _530
REMARK  200  A    between atoms: _533  and  _535
REMARK  201  A    between atoms: _535  and  _536
REMARK  202  A    between atoms: _535  and  _538
REMARK  203  A    between atoms: _538  and  _539
REMARK  204  A    between atoms: _541  and  _543
REMARK  205  A    between atoms: _543  and  _544
REMARK  206  A    between atoms: _543  and  _546
REMARK  207  A    between atoms: _546  and  _547
REMARK  208  A    between atoms: _547  and  _548
REMARK  209  A    between atoms: _550  and  _552
REMARK  210  A    between atoms: _552  and  _553
REMARK  211  A    between atoms: _552  and  _555
REMARK  212  A    between atoms: _555  and  _556
REMARK  213  A    between atoms: _562  and  _564
REMARK  214  A    between atoms: _564  and  _565
REMARK  215  A    between atoms: _564  and  _567
REMARK  216  A    between atoms: _567  and  _568
REMARK  217  A    between atoms: _578  and  _580
REMARK  218  A    between atoms: _580  and  _581
REMARK  219  A    between atoms: _580  and  _583
REMARK  220  A    between atoms: _583  and  _584
REMARK  221  A    between atoms: _589  and  _591
REMARK  222  A    between atoms: _591  and  _592
REMARK  223  A    between atoms: _591  and  _594
REMARK  224  A    between atoms: _594  and  _595
REMARK  225  A    between atoms: _595  and  _596
REMARK                            x       y       z     vdW  Elec       q    Type
REMARK                         _______ _______ _______ _____ _____    ______ ____
ROOT
ATOM      1  O   HOH     1      16.475  37.763 109.495  0.00  0.00    +0.000 OA
ENDROOT
TORSDOF 0
REMARK  Name = ../refined-set-2016/1ur9/1ur9_pocket.pdb
REMARK  225 active torsions:
REMARK  status: ('A' for Active; 'I' for Inactive)
REMARK    1  A    between atoms: _1  and  _3
REMARK    2  A    between atoms: _3  and  _4
REMARK    3  A    between atoms: _3  and  _6
REMARK    4  A    between atoms: _6  and  _7
REMARK    5  A    between atoms: _12  and  _13
REMARK    6  A    between atoms: _15  and  _17
REMARK    7  A    between atoms: _17  and  _18
REMARK    8  A    between atoms: _17  and  _20
REMARK    9  A    between atoms: _20  and  _21
REMARK   10  A    between atoms: _28  and  _29
REMARK   11  A    between atoms: _34  and  _36
REMARK   12  A    between atoms: _36  and  _37
REMARK   13  A    between atoms: _36  and  _39
REMARK   14  A    between atoms: _39  and  _40
REMARK   15  A    between atoms: _45  and  _47
REMARK   16  A    between atoms: _47  and  _48
REMARK   17  A    between atoms: _47  and  _50
REMARK   18  A    between atoms: _50  and  _51
REMARK   19  A    between atoms: _53  and  _55
REMARK   20  A    between atoms: _55  and  _56
REMARK   21  A    between atoms: _55  and  _58
REMARK   22  A    between atoms: _58  and  _59
REMARK   23  A    between atoms: _65  and  _67
REMARK   24  A    between atoms: _67  and  _68
REMARK   25  A    between atoms: _67  and  _70
REMARK   26  A    between atoms: _70  and  _71
REMARK   27  A    between atoms: _73  and  _75
REMARK   28  A    between atoms: _75  and  _76
REMARK   29  A    between atoms: _78  and  _80
REMARK   30  A    between atoms: _80  and  _81
REMARK   31  A    between atoms: _83  and  _85
REMARK   32  A    between atoms: _85  and  _86
REMARK   33  A    between atoms: _85  and  _88
REMARK   34  A    between atoms: _88  and  _89
REMARK   35  A    between atoms: _99  and  _101
REMARK   36  A    between atoms: _101  and  _102
REMARK   37  A    between atoms: _101  and  _104
REMARK   38  A    between atoms: _104  and  _105
REMARK   39  A    between atoms: _110  and  _111
REMARK   40  A    between atoms: _113  and  _115
REMARK   41  A    between atoms: _115  and  _116
REMARK   42  A    between atoms: _115  and  _118
REMARK   43  A    between atoms: _118  and  _119
REMARK   44  A    between atoms: _124  and  _125
REMARK   45  A    between atoms: _127  and  _129
REMARK   46  A    between atoms: _129  and  _130
REMARK   47  A    between atoms: _129  and  _132
REMARK   48  A    between atoms: _132  and  _133
REMARK   49  A    between atoms: _135  and  _137
REMARK   50  A    between atoms: _137  and  _138
REMARK   51  A    between atoms: _137  and  _140
REMARK   52  A    between atoms: _140  and  _141
REMARK   53  A    between atoms: _146  and  _148
REMARK   54  A    between atoms: _148  and  _149
REMARK   55  A    between atoms: _148  and  _151
REMARK   56  A    between atoms: _151  and  _152
REMARK   57  A    between atoms: _155  and  _157
REMARK   58  A    between atoms: _157  and  _158
REMARK   59  A    between atoms: _157  and  _160
REMARK   60  A    between atoms: _160  and  _161
REMARK   61  A    between atoms: _164  and  _166
REMARK   62  A    between atoms: _166  and  _167
REMARK   63  A    between atoms: _166  and  _169
REMARK   64  A    between atoms: _169  and  _170
REMARK   65  A    between atoms: _175  and  _177
REMARK   66  A    between atoms: _177  and  _178
REMARK   67  A    between atoms: _177  and  _180
REMARK   68  A    between atoms: _180  and  _181
REMARK   69  A    between atoms: _191  and  _193
REMARK   70  A    between atoms: _193  and  _194
REMARK   71  A    between atoms: _193  and  _196
REMARK   72  A    between atoms: _196  and  _197
REMARK   73  A    between atoms: _197  and  _198
REMARK   74  A    between atoms: _201  and  _203
REMARK   75  A    between atoms: _203  and  _204
REMARK   76  A    between atoms: _203  and  _206
REMARK   77  A    between atoms: _206  and  _207
REMARK   78  A    between atoms: _212  and  _213
REMARK   79  A    between atoms: _215  and  _217
REMARK   80  A    between atoms: _217  and  _218
REMARK   81  A    between atoms: _217  and  _220
REMARK   82  A    between atoms: _220  and  _221
REMARK   83  A    between atoms: _224  and  _226
REMARK   84  A    between atoms: _226  and  _227
REMARK   85  A    between atoms: _230  and  _232
REMARK   86  A    between atoms: _232  and  _233
REMARK   87  A    between atoms: _235  and  _237
REMARK   88  A    between atoms: _237  and  _238
REMARK   89  A    between atoms: _241  and  _243
REMARK   90  A    between atoms: _243  and  _244
REMARK   91  A    between atoms: _246  and  _248
REMARK   92  A    between atoms: _248  and  _249
REMARK   93  A    between atoms: _251  and  _253
REMARK   94  A    between atoms: _253  and  _254
REMARK   95  A    between atoms: _253  and  _256
REMARK   96  A    between atoms: _256  and  _257
REMARK   97  A    between atoms: _263  and  _265
REMARK   98  A    between atoms: _265  and  _266
REMARK   99  A    between atoms: _265  and  _268
REMARK  100  A    between atoms: _268  and  _269
REMARK  101  A    between atoms: _275  and  _277
REMARK  102  A    between atoms: _277  and  _278
REMARK  103  A    between atoms: _277  and  _280
REMARK  104  A    between atoms: _280  and  _281
REMARK  105  A    between atoms: _281  and  _282
REMARK  106  A    between atoms: _282  and  _283
REMARK  107  A    between atoms: _292  and  _294
REMARK  108  A    between atoms: _294  and  _295
REMARK  109  A    between atoms: _294  and  _297
REMARK  110  A    between atoms: _297  and  _298
REMARK  111  A    between atoms: _303  and  _305
REMARK  112  A    between atoms: _305  and  _306
REMARK  113  A    between atoms: _305  and  _308
REMARK  114  A    between atoms: _308  and  _309
REMARK  115  A    between atoms: _312  and  _314
REMARK  116  A    between atoms: _314  and  _315
REMARK  117  A    between atoms: _314  and  _317
REMARK  118  A    between atoms: _317  and  _318
REMARK  119  A    between atoms: _318  and  _319
REMARK  120  A    between atoms: _321  and  _323
REMARK  121  A    between atoms: _323  and  _324
REMARK  122  A    between atoms: _323  and  _326
REMARK  123  A    between atoms: _326  and  _327
REMARK  124  A    between atoms: _330  and  _332
REMARK  125  A    between atoms: _332  and  _333
REMARK  126  A    between atoms: _332  and  _335
REMARK  127  A    between atoms: _335  and  _336
REMARK  128  A    between atoms: _341  and  _342
REMARK  129  A    between atoms: _344  and  _346
REMARK  130  A    between atoms: _346  and  _347
REMARK  131  A    between atoms: _346  and  _349
REMARK  132  A    between atoms: _349  and  _350
REMARK  133  A    between atoms: _353  and  _355
REMARK  134  A    between atoms: _355  and  _356
REMARK  135  A    between atoms: _355  and  _358
REMARK  136  A    between atoms: _358  and  _359
REMARK  137  A    between atoms: _362  and  _364
REMARK  138  A    between atoms: _364  and  _365
REMARK  139  A    between atoms: _368  and  _370
REMARK  140  A    between atoms: _370  and  _371
REMARK  141  A    between atoms: _373  and  _375
REMARK  142  A    between atoms: _375  and  _376
REMARK  143  A    between atoms: _375  and  _378
REMARK  144  A    between atoms: _378  and  _379
REMARK  145  A    between atoms: _389  and  _391
REMARK  146  A    between atoms: _391  and  _392
REMARK  147  A    between atoms: _391  and  _394
REMARK  148  A    between atoms: _394  and  _395
REMARK  149  A    between atoms: _395  and  _396
REMARK  150  A    between atoms: _399  and  _401
REMARK  151  A    between atoms: _401  and  _402
REMARK  152  A    between atoms: _401  and  _404
REMARK  153  A    between atoms: _404  and  _405
REMARK  154  A    between atoms: _405  and  _406
REMARK  155  A    between atoms: _411  and  _413
REMARK  156  A    between atoms: _413  and  _414
REMARK  157  A    between atoms: _413  and  _416
REMARK  158  A    between atoms: _420  and  _421
REMARK  159  A    between atoms: _426  and  _428
REMARK  160  A    between atoms: _428  and  _429
REMARK  161  A    between atoms: _428  and  _431
REMARK  162  A    between atoms: _431  and  _432
REMARK  163  A    between atoms: _438  and  _440
REMARK  164  A    between atoms: _440  and  _441
REMARK  165  A    between atoms: _440  and  _443
REMARK  166  A    between atoms: _443  and  _444
REMARK  167  A    between atoms: _449  and  _450
REMARK  168  A    between atoms: _452  and  _454
REMARK  169  A    between atoms: _454  and  _455
REMARK  170  A    between atoms: _457  and  _459
REMARK  171  A    between atoms: _459  and  _460
REMARK  172  A    between atoms: _459  and  _462
REMARK  173  A    between atoms: _462  and  _463
REMARK  174  A    between atoms: _463  and  _464
REMARK  175  A    between atoms: _464  and  _465
REMARK  176  A    between atoms: _474  and  _476
REMARK  177  A    between atoms: _476  and  _477
REMARK  178  A    between atoms: _476  and  _479
REMARK  179  A    between atoms: _479  and  _480
REMARK  180  A    between atoms: _483  and  _485
REMARK  181  A    between atoms: _485  and  _486
REMARK  182  A    between atoms: _485  and  _488
REMARK  183  A    between atoms: _488  and  _489
REMARK  184  A    between atoms: _492  and  _494
REMARK  185  A    between atoms: _494  and  _495
REMARK  186  A    between atoms: _494  and  _497
REMARK  187  A    between atoms: _497  and  _498
REMARK  188  A    between atoms: _501  and  _503
REMARK  189  A    between atoms: _503  and  _504
REMARK  190  A    between atoms: _503  and  _506
REMARK  191  A    between atoms: _506  and  _507
REMARK  192  A    between atoms: _507  and  _508
REMARK  193  A    between atoms: _508  and  _509
REMARK  194  A    between atoms: _518  and  _520
REMARK  195  A    between atoms: _520  and  _521
REMARK  196  A    between atoms: _520  and  _523
REMARK  197  A    between atoms: _523  and  _524
REMARK  198  A    between atoms: _527  and  _529
REMARK  199  A    between atoms: _529  and  _530
REMARK  200  A    between atoms: _533  and  _535
REMARK  201  A    between atoms: _535  and  _536
REMARK  202  A    between atoms: _535  and  _538
REMARK  203  A    between atoms: _538  and  _539
REMARK  204  A    between atoms: _541  and  _543
REMARK  205  A    between atoms: _543  and  _544
REMARK  206  A    between atoms: _543  and  _546
REMARK  207  A    between atoms: _546  and  _547
REMARK  208  A    between atoms: _547  and  _548
REMARK  209  A    between atoms: _550  and  _552
REMARK  210  A    between atoms: _552  and  _553
REMARK  211  A    between atoms: _552  and  _555
REMARK  212  A    between atoms: _555  and  _556
REMARK  213  A    between atoms: _562  and  _564
REMARK  214  A    between atoms: _564  and  _565
REMARK  215  A    between atoms: _564  and  _567
REMARK  216  A    between atoms: _567  and  _568
REMARK  217  A    between atoms: _578  and  _580
REMARK  218  A    between atoms: _580  and  _581
REMARK  219  A    between atoms: _580  and  _583
REMARK  220  A    between atoms: _583  and  _584
REMARK  221  A    between atoms: _589  and  _591
REMARK  222  A    between atoms: _591  and  _592
REMARK  223  A    between atoms: _591  and  _594
REMARK  224  A    between atoms: _594  and  _595
REMARK  225  A    between atoms: _595  and  _596
REMARK                            x       y       z     vdW  Elec       q    Type
REMARK                         _______ _______ _______ _____ _____    ______ ____
ROOT
ATOM      1  O   HOH     1      18.459  36.013 109.795  0.00  0.00    +0.000 OA
ENDROOT
TORSDOF 0
REMARK  Name = ../refined-set-2016/1ur9/1ur9_pocket.pdb
REMARK  225 active torsions:
REMARK  status: ('A' for Active; 'I' for Inactive)
REMARK    1  A    between atoms: _1  and  _3
REMARK    2  A    between atoms: _3  and  _4
REMARK    3  A    between atoms: _3  and  _6
REMARK    4  A    between atoms: _6  and  _7
REMARK    5  A    between atoms: _12  and  _13
REMARK    6  A    between atoms: _15  and  _17
REMARK    7  A    between atoms: _17  and  _18
REMARK    8  A    between atoms: _17  and  _20
REMARK    9  A    between atoms: _20  and  _21
REMARK   10  A    between atoms: _28  and  _29
REMARK   11  A    between atoms: _34  and  _36
REMARK   12  A    between atoms: _36  and  _37
REMARK   13  A    between atoms: _36  and  _39
REMARK   14  A    between atoms: _39  and  _40
REMARK   15  A    between atoms: _45  and  _47
REMARK   16  A    between atoms: _47  and  _48
REMARK   17  A    between atoms: _47  and  _50
REMARK   18  A    between atoms: _50  and  _51
REMARK   19  A    between atoms: _53  and  _55
REMARK   20  A    between atoms: _55  and  _56
REMARK   21  A    between atoms: _55  and  _58
REMARK   22  A    between atoms: _58  and  _59
REMARK   23  A    between atoms: _65  and  _67
REMARK   24  A    between atoms: _67  and  _68
REMARK   25  A    between atoms: _67  and  _70
REMARK   26  A    between atoms: _70  and  _71
REMARK   27  A    between atoms: _73  and  _75
REMARK   28  A    between atoms: _75  and  _76
REMARK   29  A    between atoms: _78  and  _80
REMARK   30  A    between atoms: _80  and  _81
REMARK   31  A    between atoms: _83  and  _85
REMARK   32  A    between atoms: _85  and  _86
REMARK   33  A    between atoms: _85  and  _88
REMARK   34  A    between atoms: _88  and  _89
REMARK   35  A    between atoms: _99  and  _101
REMARK   36  A    between atoms: _101  and  _102
REMARK   37  A    between atoms: _101  and  _104
REMARK   38  A    between atoms: _104  and  _105
REMARK   39  A    between atoms: _110  and  _111
REMARK   40  A    between atoms: _113  and  _115
REMARK   41  A    between atoms: _115  and  _116
REMARK   42  A    between atoms: _115  and  _118
REMARK   43  A    between atoms: _118  and  _119
REMARK   44  A    between atoms: _124  and  _125
REMARK   45  A    between atoms: _127  and  _129
REMARK   46  A    between atoms: _129  and  _130
REMARK   47  A    between atoms: _129  and  _132
REMARK   48  A    between atoms: _132  and  _133
REMARK   49  A    between atoms: _135  and  _137
REMARK   50  A    between atoms: _137  and  _138
REMARK   51  A    between atoms: _137  and  _140
REMARK   52  A    between atoms: _140  and  _141
REMARK   53  A    between atoms: _146  and  _148
REMARK   54  A    between atoms: _148  and  _149
REMARK   55  A    between atoms: _148  and  _151
REMARK   56  A    between atoms: _151  and  _152
REMARK   57  A    between atoms: _155  and  _157
REMARK   58  A    between atoms: _157  and  _158
REMARK   59  A    between atoms: _157  and  _160
REMARK   60  A    between atoms: _160  and  _161
REMARK   61  A    between atoms: _164  and  _166
REMARK   62  A    between atoms: _166  and  _167
REMARK   63  A    between atoms: _166  and  _169
REMARK   64  A    between atoms: _169  and  _170
REMARK   65  A    between atoms: _175  and  _177
REMARK   66  A    between atoms: _177  and  _178
REMARK   67  A    between atoms: _177  and  _180
REMARK   68  A    between atoms: _180  and  _181
REMARK   69  A    between atoms: _191  and  _193
REMARK   70  A    between atoms: _193  and  _194
REMARK   71  A    between atoms: _193  and  _196
REMARK   72  A    between atoms: _196  and  _197
REMARK   73  A    between atoms: _197  and  _198
REMARK   74  A    between atoms: _201  and  _203
REMARK   75  A    between atoms: _203  and  _204
REMARK   76  A    between atoms: _203  and  _206
REMARK   77  A    between atoms: _206  and  _207
REMARK   78  A    between atoms: _212  and  _213
REMARK   79  A    between atoms: _215  and  _217
REMARK   80  A    between atoms: _217  and  _218
REMARK   81  A    between atoms: _217  and  _220
REMARK   82  A    between atoms: _220  and  _221
REMARK   83  A    between atoms: _224  and  _226
REMARK   84  A    between atoms: _226  and  _227
REMARK   85  A    between atoms: _230  and  _232
REMARK   86  A    between atoms: _232  and  _233
REMARK   87  A    between atoms: _235  and  _237
REMARK   88  A    between atoms: _237  and  _238
REMARK   89  A    between atoms: _241  and  _243
REMARK   90  A    between atoms: _243  and  _244
REMARK   91  A    between atoms: _246  and  _248
REMARK   92  A    between atoms: _248  and  _249
REMARK   93  A    between atoms: _251  and  _253
REMARK   94  A    between atoms: _253  and  _254
REMARK   95  A    between atoms: _253  and  _256
REMARK   96  A    between atoms: _256  and  _257
REMARK   97  A    between atoms: _263  and  _265
REMARK   98  A    between atoms: _265  and  _266
REMARK   99  A    between atoms: _265  and  _268
REMARK  100  A    between atoms: _268  and  _269
REMARK  101  A    between atoms: _275  and  _277
REMARK  102  A    between atoms: _277  and  _278
REMARK  103  A    between atoms: _277  and  _280
REMARK  104  A    between atoms: _280  and  _281
REMARK  105  A    between atoms: _281  and  _282
REMARK  106  A    between atoms: _282  and  _283
REMARK  107  A    between atoms: _292  and  _294
REMARK  108  A    between atoms: _294  and  _295
REMARK  109  A    between atoms: _294  and  _297
REMARK  110  A    between atoms: _297  and  _298
REMARK  111  A    between atoms: _303  and  _305
REMARK  112  A    between atoms: _305  and  _306
REMARK  113  A    between atoms: _305  and  _308
REMARK  114  A    between atoms: _308  and  _309
REMARK  115  A    between atoms: _312  and  _314
REMARK  116  A    between atoms: _314  and  _315
REMARK  117  A    between atoms: _314  and  _317
REMARK  118  A    between atoms: _317  and  _318
REMARK  119  A    between atoms: _318  and  _319
REMARK  120  A    between atoms: _321  and  _323
REMARK  121  A    between atoms: _323  and  _324
REMARK  122  A    between atoms: _323  and  _326
REMARK  123  A    between atoms: _326  and  _327
REMARK  124  A    between atoms: _330  and  _332
REMARK  125  A    between atoms: _332  and  _333
REMARK  126  A    between atoms: _332  and  _335
REMARK  127  A    between atoms: _335  and  _336
REMARK  128  A    between atoms: _341  and  _342
REMARK  129  A    between atoms: _344  and  _346
REMARK  130  A    between atoms: _346  and  _347
REMARK  131  A    between atoms: _346  and  _349
REMARK  132  A    between atoms: _349  and  _350
REMARK  133  A    between atoms: _353  and  _355
REMARK  134  A    between atoms: _355  and  _356
REMARK  135  A    between atoms: _355  and  _358
REMARK  136  A    between atoms: _358  and  _359
REMARK  137  A    between atoms: _362  and  _364
REMARK  138  A    between atoms: _364  and  _365
REMARK  139  A    between atoms: _368  and  _370
REMARK  140  A    between atoms: _370  and  _371
REMARK  141  A    between atoms: _373  and  _375
REMARK  142  A    between atoms: _375  and  _376
REMARK  143  A    between atoms: _375  and  _378
REMARK  144  A    between atoms: _378  and  _379
REMARK  145  A    between atoms: _389  and  _391
REMARK  146  A    between atoms: _391  and  _392
REMARK  147  A    between atoms: _391  and  _394
REMARK  148  A    between atoms: _394  and  _395
REMARK  149  A    between atoms: _395  and  _396
REMARK  150  A    between atoms: _399  and  _401
REMARK  151  A    between atoms: _401  and  _402
REMARK  152  A    between atoms: _401  and  _404
REMARK  153  A    between atoms: _404  and  _405
REMARK  154  A    between atoms: _405  and  _406
REMARK  155  A    between atoms: _411  and  _413
REMARK  156  A    between atoms: _413  and  _414
REMARK  157  A    between atoms: _413  and  _416
REMARK  158  A    between atoms: _420  and  _421
REMARK  159  A    between atoms: _426  and  _428
REMARK  160  A    between atoms: _428  and  _429
REMARK  161  A    between atoms: _428  and  _431
REMARK  162  A    between atoms: _431  and  _432
REMARK  163  A    between atoms: _438  and  _440
REMARK  164  A    between atoms: _440  and  _441
REMARK  165  A    between atoms: _440  and  _443
REMARK  166  A    between atoms: _443  and  _444
REMARK  167  A    between atoms: _449  and  _450
REMARK  168  A    between atoms: _452  and  _454
REMARK  169  A    between atoms: _454  and  _455
REMARK  170  A    between atoms: _457  and  _459
REMARK  171  A    between atoms: _459  and  _460
REMARK  172  A    between atoms: _459  and  _462
REMARK  173  A    between atoms: _462  and  _463
REMARK  174  A    between atoms: _463  and  _464
REMARK  175  A    between atoms: _464  and  _465
REMARK  176  A    between atoms: _474  and  _476
REMARK  177  A    between atoms: _476  and  _477
REMARK  178  A    between atoms: _476  and  _479
REMARK  179  A    between atoms: _479  and  _480
REMARK  180  A    between atoms: _483  and  _485
REMARK  181  A    between atoms: _485  and  _486
REMARK  182  A    between atoms: _485  and  _488
REMARK  183  A    between atoms: _488  and  _489
REMARK  184  A    between atoms: _492  and  _494
REMARK  185  A    between atoms: _494  and  _495
REMARK  186  A    between atoms: _494  and  _497
REMARK  187  A    between atoms: _497  and  _498
REMARK  188  A    between atoms: _501  and  _503
REMARK  189  A    between atoms: _503  and  _504
REMARK  190  A    between atoms: _503  and  _506
REMARK  191  A    between atoms: _506  and  _507
REMARK  192  A    between atoms: _507  and  _508
REMARK  193  A    between atoms: _508  and  _509
REMARK  194  A    between atoms: _518  and  _520
REMARK  195  A    between atoms: _520  and  _521
REMARK  196  A    between atoms: _520  and  _523
REMARK  197  A    between atoms: _523  and  _524
REMARK  198  A    between atoms: _527  and  _529
REMARK  199  A    between atoms: _529  and  _530
REMARK  200  A    between atoms: _533  and  _535
REMARK  201  A    between atoms: _535  and  _536
REMARK  202  A    between atoms: _535  and  _538
REMARK  203  A    between atoms: _538  and  _539
REMARK  204  A    between atoms: _541  and  _543
REMARK  205  A    between atoms: _543  and  _544
REMARK  206  A    between atoms: _543  and  _546
REMARK  207  A    between atoms: _546  and  _547
REMARK  208  A    between atoms: _547  and  _548
REMARK  209  A    between atoms: _550  and  _552
REMARK  210  A    between atoms: _552  and  _553
REMARK  211  A    between atoms: _552  and  _555
REMARK  212  A    between atoms: _555  and  _556
REMARK  213  A    between atoms: _562  and  _564
REMARK  214  A    between atoms: _564  and  _565
REMARK  215  A    between atoms: _564  and  _567
REMARK  216  A    between atoms: _567  and  _568
REMARK  217  A    between atoms: _578  and  _580
REMARK  218  A    between atoms: _580  and  _581
REMARK  219  A    between atoms: _580  and  _583
REMARK  220  A    between atoms: _583  and  _584
REMARK  221  A    between atoms: _589  and  _591
REMARK  222  A    between atoms: _591  and  _592
REMARK  223  A    between atoms: _591  and  _594
REMARK  224  A    between atoms: _594  and  _595
REMARK  225  A    between atoms: _595  and  _596
REMARK                            x       y       z     vdW  Elec       q    Type
REMARK                         _______ _______ _______ _____ _____    ______ ____
ROOT
ATOM      1  O   HOH     1      24.710  45.741  91.647  0.00  0.00    +0.000 OA
ENDROOT
TORSDOF 0
REMARK  Name = ../refined-set-2016/1ur9/1ur9_pocket.pdb
REMARK  225 active torsions:
REMARK  status: ('A' for Active; 'I' for Inactive)
REMARK    1  A    between atoms: _1  and  _3
REMARK    2  A    between atoms: _3  and  _4
REMARK    3  A    between atoms: _3  and  _6
REMARK    4  A    between atoms: _6  and  _7
REMARK    5  A    between atoms: _12  and  _13
REMARK    6  A    between atoms: _15  and  _17
REMARK    7  A    between atoms: _17  and  _18
REMARK    8  A    between atoms: _17  and  _20
REMARK    9  A    between atoms: _20  and  _21
REMARK   10  A    between atoms: _28  and  _29
REMARK   11  A    between atoms: _34  and  _36
REMARK   12  A    between atoms: _36  and  _37
REMARK   13  A    between atoms: _36  and  _39
REMARK   14  A    between atoms: _39  and  _40
REMARK   15  A    between atoms: _45  and  _47
REMARK   16  A    between atoms: _47  and  _48
REMARK   17  A    between atoms: _47  and  _50
REMARK   18  A    between atoms: _50  and  _51
REMARK   19  A    between atoms: _53  and  _55
REMARK   20  A    between atoms: _55  and  _56
REMARK   21  A    between atoms: _55  and  _58
REMARK   22  A    between atoms: _58  and  _59
REMARK   23  A    between atoms: _65  and  _67
REMARK   24  A    between atoms: _67  and  _68
REMARK   25  A    between atoms: _67  and  _70
REMARK   26  A    between atoms: _70  and  _71
REMARK   27  A    between atoms: _73  and  _75
REMARK   28  A    between atoms: _75  and  _76
REMARK   29  A    between atoms: _78  and  _80
REMARK   30  A    between atoms: _80  and  _81
REMARK   31  A    between atoms: _83  and  _85
REMARK   32  A    between atoms: _85  and  _86
REMARK   33  A    between atoms: _85  and  _88
REMARK   34  A    between atoms: _88  and  _89
REMARK   35  A    between atoms: _99  and  _101
REMARK   36  A    between atoms: _101  and  _102
REMARK   37  A    between atoms: _101  and  _104
REMARK   38  A    between atoms: _104  and  _105
REMARK   39  A    between atoms: _110  and  _111
REMARK   40  A    between atoms: _113  and  _115
REMARK   41  A    between atoms: _115  and  _116
REMARK   42  A    between atoms: _115  and  _118
REMARK   43  A    between atoms: _118  and  _119
REMARK   44  A    between atoms: _124  and  _125
REMARK   45  A    between atoms: _127  and  _129
REMARK   46  A    between atoms: _129  and  _130
REMARK   47  A    between atoms: _129  and  _132
REMARK   48  A    between atoms: _132  and  _133
REMARK   49  A    between atoms: _135  and  _137
REMARK   50  A    between atoms: _137  and  _138
REMARK   51  A    between atoms: _137  and  _140
REMARK   52  A    between atoms: _140  and  _141
REMARK   53  A    between atoms: _146  and  _148
REMARK   54  A    between atoms: _148  and  _149
REMARK   55  A    between atoms: _148  and  _151
REMARK   56  A    between atoms: _151  and  _152
REMARK   57  A    between atoms: _155  and  _157
REMARK   58  A    between atoms: _157  and  _158
REMARK   59  A    between atoms: _157  and  _160
REMARK   60  A    between atoms: _160  and  _161
REMARK   61  A    between atoms: _164  and  _166
REMARK   62  A    between atoms: _166  and  _167
REMARK   63  A    between atoms: _166  and  _169
REMARK   64  A    between atoms: _169  and  _170
REMARK   65  A    between atoms: _175  and  _177
REMARK   66  A    between atoms: _177  and  _178
REMARK   67  A    between atoms: _177  and  _180
REMARK   68  A    between atoms: _180  and  _181
REMARK   69  A    between atoms: _191  and  _193
REMARK   70  A    between atoms: _193  and  _194
REMARK   71  A    between atoms: _193  and  _196
REMARK   72  A    between atoms: _196  and  _197
REMARK   73  A    between atoms: _197  and  _198
REMARK   74  A    between atoms: _201  and  _203
REMARK   75  A    between atoms: _203  and  _204
REMARK   76  A    between atoms: _203  and  _206
REMARK   77  A    between atoms: _206  and  _207
REMARK   78  A    between atoms: _212  and  _213
REMARK   79  A    between atoms: _215  and  _217
REMARK   80  A    between atoms: _217  and  _218
REMARK   81  A    between atoms: _217  and  _220
REMARK   82  A    between atoms: _220  and  _221
REMARK   83  A    between atoms: _224  and  _226
REMARK   84  A    between atoms: _226  and  _227
REMARK   85  A    between atoms: _230  and  _232
REMARK   86  A    between atoms: _232  and  _233
REMARK   87  A    between atoms: _235  and  _237
REMARK   88  A    between atoms: _237  and  _238
REMARK   89  A    between atoms: _241  and  _243
REMARK   90  A    between atoms: _243  and  _244
REMARK   91  A    between atoms: _246  and  _248
REMARK   92  A    between atoms: _248  and  _249
REMARK   93  A    between atoms: _251  and  _253
REMARK   94  A    between atoms: _253  and  _254
REMARK   95  A    between atoms: _253  and  _256
REMARK   96  A    between atoms: _256  and  _257
REMARK   97  A    between atoms: _263  and  _265
REMARK   98  A    between atoms: _265  and  _266
REMARK   99  A    between atoms: _265  and  _268
REMARK  100  A    between atoms: _268  and  _269
REMARK  101  A    between atoms: _275  and  _277
REMARK  102  A    between atoms: _277  and  _278
REMARK  103  A    between atoms: _277  and  _280
REMARK  104  A    between atoms: _280  and  _281
REMARK  105  A    between atoms: _281  and  _282
REMARK  106  A    between atoms: _282  and  _283
REMARK  107  A    between atoms: _292  and  _294
REMARK  108  A    between atoms: _294  and  _295
REMARK  109  A    between atoms: _294  and  _297
REMARK  110  A    between atoms: _297  and  _298
REMARK  111  A    between atoms: _303  and  _305
REMARK  112  A    between atoms: _305  and  _306
REMARK  113  A    between atoms: _305  and  _308
REMARK  114  A    between atoms: _308  and  _309
REMARK  115  A    between atoms: _312  and  _314
REMARK  116  A    between atoms: _314  and  _315
REMARK  117  A    between atoms: _314  and  _317
REMARK  118  A    between atoms: _317  and  _318
REMARK  119  A    between atoms: _318  and  _319
REMARK  120  A    between atoms: _321  and  _323
REMARK  121  A    between atoms: _323  and  _324
REMARK  122  A    between atoms: _323  and  _326
REMARK  123  A    between atoms: _326  and  _327
REMARK  124  A    between atoms: _330  and  _332
REMARK  125  A    between atoms: _332  and  _333
REMARK  126  A    between atoms: _332  and  _335
REMARK  127  A    between atoms: _335  and  _336
REMARK  128  A    between atoms: _341  and  _342
REMARK  129  A    between atoms: _344  and  _346
REMARK  130  A    between atoms: _346  and  _347
REMARK  131  A    between atoms: _346  and  _349
REMARK  132  A    between atoms: _349  and  _350
REMARK  133  A    between atoms: _353  and  _355
REMARK  134  A    between atoms: _355  and  _356
REMARK  135  A    between atoms: _355  and  _358
REMARK  136  A    between atoms: _358  and  _359
REMARK  137  A    between atoms: _362  and  _364
REMARK  138  A    between atoms: _364  and  _365
REMARK  139  A    between atoms: _368  and  _370
REMARK  140  A    between atoms: _370  and  _371
REMARK  141  A    between atoms: _373  and  _375
REMARK  142  A    between atoms: _375  and  _376
REMARK  143  A    between atoms: _375  and  _378
REMARK  144  A    between atoms: _378  and  _379
REMARK  145  A    between atoms: _389  and  _391
REMARK  146  A    between atoms: _391  and  _392
REMARK  147  A    between atoms: _391  and  _394
REMARK  148  A    between atoms: _394  and  _395
REMARK  149  A    between atoms: _395  and  _396
REMARK  150  A    between atoms: _399  and  _401
REMARK  151  A    between atoms: _401  and  _402
REMARK  152  A    between atoms: _401  and  _404
REMARK  153  A    between atoms: _404  and  _405
REMARK  154  A    between atoms: _405  and  _406
REMARK  155  A    between atoms: _411  and  _413
REMARK  156  A    between atoms: _413  and  _414
REMARK  157  A    between atoms: _413  and  _416
REMARK  158  A    between atoms: _420  and  _421
REMARK  159  A    between atoms: _426  and  _428
REMARK  160  A    between atoms: _428  and  _429
REMARK  161  A    between atoms: _428  and  _431
REMARK  162  A    between atoms: _431  and  _432
REMARK  163  A    between atoms: _438  and  _440
REMARK  164  A    between atoms: _440  and  _441
REMARK  165  A    between atoms: _440  and  _443
REMARK  166  A    between atoms: _443  and  _444
REMARK  167  A    between atoms: _449  and  _450
REMARK  168  A    between atoms: _452  and  _454
REMARK  169  A    between atoms: _454  and  _455
REMARK  170  A    between atoms: _457  and  _459
REMARK  171  A    between atoms: _459  and  _460
REMARK  172  A    between atoms: _459  and  _462
REMARK  173  A    between atoms: _462  and  _463
REMARK  174  A    between atoms: _463  and  _464
REMARK  175  A    between atoms: _464  and  _465
REMARK  176  A    between atoms: _474  and  _476
REMARK  177  A    between atoms: _476  and  _477
REMARK  178  A    between atoms: _476  and  _479
REMARK  179  A    between atoms: _479  and  _480
REMARK  180  A    between atoms: _483  and  _485
REMARK  181  A    between atoms: _485  and  _486
REMARK  182  A    between atoms: _485  and  _488
REMARK  183  A    between atoms: _488  and  _489
REMARK  184  A    between atoms: _492  and  _494
REMARK  185  A    between atoms: _494  and  _495
REMARK  186  A    between atoms: _494  and  _497
REMARK  187  A    between atoms: _497  and  _498
REMARK  188  A    between atoms: _501  and  _503
REMARK  189  A    between atoms: _503  and  _504
REMARK  190  A    between atoms: _503  and  _506
REMARK  191  A    between atoms: _506  and  _507
REMARK  192  A    between atoms: _507  and  _508
REMARK  193  A    between atoms: _508  and  _509
REMARK  194  A    between atoms: _518  and  _520
REMARK  195  A    between atoms: _520  and  _521
REMARK  196  A    between atoms: _520  and  _523
REMARK  197  A    between atoms: _523  and  _524
REMARK  198  A    between atoms: _527  and  _529
REMARK  199  A    between atoms: _529  and  _530
REMARK  200  A    between atoms: _533  and  _535
REMARK  201  A    between atoms: _535  and  _536
REMARK  202  A    between atoms: _535  and  _538
REMARK  203  A    between atoms: _538  and  _539
REMARK  204  A    between atoms: _541  and  _543
REMARK  205  A    between atoms: _543  and  _544
REMARK  206  A    between atoms: _543  and  _546
REMARK  207  A    between atoms: _546  and  _547
REMARK  208  A    between atoms: _547  and  _548
REMARK  209  A    between atoms: _550  and  _552
REMARK  210  A    between atoms: _552  and  _553
REMARK  211  A    between atoms: _552  and  _555
REMARK  212  A    between atoms: _555  and  _556
REMARK  213  A    between atoms: _562  and  _564
REMARK  214  A    between atoms: _564  and  _565
REMARK  215  A    between atoms: _564  and  _567
REMARK  216  A    between atoms: _567  and  _568
REMARK  217  A    between atoms: _578  and  _580
REMARK  218  A    between atoms: _580  and  _581
REMARK  219  A    between atoms: _580  and  _583
REMARK  220  A    between atoms: _583  and  _584
REMARK  221  A    between atoms: _589  and  _591
REMARK  222  A    between atoms: _591  and  _592
REMARK  223  A    between atoms: _591  and  _594
REMARK  224  A    between atoms: _594  and  _595
REMARK  225  A    between atoms: _595  and  _596
REMARK                            x       y       z     vdW  Elec       q    Type
REMARK                         _______ _______ _______ _____ _____    ______ ____
ROOT
ATOM      1  O   HOH     1      18.995  37.092  94.795  0.00  0.00    +0.000 OA
ENDROOT
TORSDOF 0
REMARK  Name = ../refined-set-2016/1ur9/1ur9_pocket.pdb
REMARK  225 active torsions:
REMARK  status: ('A' for Active; 'I' for Inactive)
REMARK    1  A    between atoms: _1  and  _3
REMARK    2  A    between atoms: _3  and  _4
REMARK    3  A    between atoms: _3  and  _6
REMARK    4  A    between atoms: _6  and  _7
REMARK    5  A    between atoms: _12  and  _13
REMARK    6  A    between atoms: _15  and  _17
REMARK    7  A    between atoms: _17  and  _18
REMARK    8  A    between atoms: _17  and  _20
REMARK    9  A    between atoms: _20  and  _21
REMARK   10  A    between atoms: _28  and  _29
REMARK   11  A    between atoms: _34  and  _36
REMARK   12  A    between atoms: _36  and  _37
REMARK   13  A    between atoms: _36  and  _39
REMARK   14  A    between atoms: _39  and  _40
REMARK   15  A    between atoms: _45  and  _47
REMARK   16  A    between atoms: _47  and  _48
REMARK   17  A    between atoms: _47  and  _50
REMARK   18  A    between atoms: _50  and  _51
REMARK   19  A    between atoms: _53  and  _55
REMARK   20  A    between atoms: _55  and  _56
REMARK   21  A    between atoms: _55  and  _58
REMARK   22  A    between atoms: _58  and  _59
REMARK   23  A    between atoms: _65  and  _67
REMARK   24  A    between atoms: _67  and  _68
REMARK   25  A    between atoms: _67  and  _70
REMARK   26  A    between atoms: _70  and  _71
REMARK   27  A    between atoms: _73  and  _75
REMARK   28  A    between atoms: _75  and  _76
REMARK   29  A    between atoms: _78  and  _80
REMARK   30  A    between atoms: _80  and  _81
REMARK   31  A    between atoms: _83  and  _85
REMARK   32  A    between atoms: _85  and  _86
REMARK   33  A    between atoms: _85  and  _88
REMARK   34  A    between atoms: _88  and  _89
REMARK   35  A    between atoms: _99  and  _101
REMARK   36  A    between atoms: _101  and  _102
REMARK   37  A    between atoms: _101  and  _104
REMARK   38  A    between atoms: _104  and  _105
REMARK   39  A    between atoms: _110  and  _111
REMARK   40  A    between atoms: _113  and  _115
REMARK   41  A    between atoms: _115  and  _116
REMARK   42  A    between atoms: _115  and  _118
REMARK   43  A    between atoms: _118  and  _119
REMARK   44  A    between atoms: _124  and  _125
REMARK   45  A    between atoms: _127  and  _129
REMARK   46  A    between atoms: _129  and  _130
REMARK   47  A    between atoms: _129  and  _132
REMARK   48  A    between atoms: _132  and  _133
REMARK   49  A    between atoms: _135  and  _137
REMARK   50  A    between atoms: _137  and  _138
REMARK   51  A    between atoms: _137  and  _140
REMARK   52  A    between atoms: _140  and  _141
REMARK   53  A    between atoms: _146  and  _148
REMARK   54  A    between atoms: _148  and  _149
REMARK   55  A    between atoms: _148  and  _151
REMARK   56  A    between atoms: _151  and  _152
REMARK   57  A    between atoms: _155  and  _157
REMARK   58  A    between atoms: _157  and  _158
REMARK   59  A    between atoms: _157  and  _160
REMARK   60  A    between atoms: _160  and  _161
REMARK   61  A    between atoms: _164  and  _166
REMARK   62  A    between atoms: _166  and  _167
REMARK   63  A    between atoms: _166  and  _169
REMARK   64  A    between atoms: _169  and  _170
REMARK   65  A    between atoms: _175  and  _177
REMARK   66  A    between atoms: _177  and  _178
REMARK   67  A    between atoms: _177  and  _180
REMARK   68  A    between atoms: _180  and  _181
REMARK   69  A    between atoms: _191  and  _193
REMARK   70  A    between atoms: _193  and  _194
REMARK   71  A    between atoms: _193  and  _196
REMARK   72  A    between atoms: _196  and  _197
REMARK   73  A    between atoms: _197  and  _198
REMARK   74  A    between atoms: _201  and  _203
REMARK   75  A    between atoms: _203  and  _204
REMARK   76  A    between atoms: _203  and  _206
REMARK   77  A    between atoms: _206  and  _207
REMARK   78  A    between atoms: _212  and  _213
REMARK   79  A    between atoms: _215  and  _217
REMARK   80  A    between atoms: _217  and  _218
REMARK   81  A    between atoms: _217  and  _220
REMARK   82  A    between atoms: _220  and  _221
REMARK   83  A    between atoms: _224  and  _226
REMARK   84  A    between atoms: _226  and  _227
REMARK   85  A    between atoms: _230  and  _232
REMARK   86  A    between atoms: _232  and  _233
REMARK   87  A    between atoms: _235  and  _237
REMARK   88  A    between atoms: _237  and  _238
REMARK   89  A    between atoms: _241  and  _243
REMARK   90  A    between atoms: _243  and  _244
REMARK   91  A    between atoms: _246  and  _248
REMARK   92  A    between atoms: _248  and  _249
REMARK   93  A    between atoms: _251  and  _253
REMARK   94  A    between atoms: _253  and  _254
REMARK   95  A    between atoms: _253  and  _256
REMARK   96  A    between atoms: _256  and  _257
REMARK   97  A    between atoms: _263  and  _265
REMARK   98  A    between atoms: _265  and  _266
REMARK   99  A    between atoms: _265  and  _268
REMARK  100  A    between atoms: _268  and  _269
REMARK  101  A    between atoms: _275  and  _277
REMARK  102  A    between atoms: _277  and  _278
REMARK  103  A    between atoms: _277  and  _280
REMARK  104  A    between atoms: _280  and  _281
REMARK  105  A    between atoms: _281  and  _282
REMARK  106  A    between atoms: _282  and  _283
REMARK  107  A    between atoms: _292  and  _294
REMARK  108  A    between atoms: _294  and  _295
REMARK  109  A    between atoms: _294  and  _297
REMARK  110  A    between atoms: _297  and  _298
REMARK  111  A    between atoms: _303  and  _305
REMARK  112  A    between atoms: _305  and  _306
REMARK  113  A    between atoms: _305  and  _308
REMARK  114  A    between atoms: _308  and  _309
REMARK  115  A    between atoms: _312  and  _314
REMARK  116  A    between atoms: _314  and  _315
REMARK  117  A    between atoms: _314  and  _317
REMARK  118  A    between atoms: _317  and  _318
REMARK  119  A    between atoms: _318  and  _319
REMARK  120  A    between atoms: _321  and  _323
REMARK  121  A    between atoms: _323  and  _324
REMARK  122  A    between atoms: _323  and  _326
REMARK  123  A    between atoms: _326  and  _327
REMARK  124  A    between atoms: _330  and  _332
REMARK  125  A    between atoms: _332  and  _333
REMARK  126  A    between atoms: _332  and  _335
REMARK  127  A    between atoms: _335  and  _336
REMARK  128  A    between atoms: _341  and  _342
REMARK  129  A    between atoms: _344  and  _346
REMARK  130  A    between atoms: _346  and  _347
REMARK  131  A    between atoms: _346  and  _349
REMARK  132  A    between atoms: _349  and  _350
REMARK  133  A    between atoms: _353  and  _355
REMARK  134  A    between atoms: _355  and  _356
REMARK  135  A    between atoms: _355  and  _358
REMARK  136  A    between atoms: _358  and  _359
REMARK  137  A    between atoms: _362  and  _364
REMARK  138  A    between atoms: _364  and  _365
REMARK  139  A    between atoms: _368  and  _370
REMARK  140  A    between atoms: _370  and  _371
REMARK  141  A    between atoms: _373  and  _375
REMARK  142  A    between atoms: _375  and  _376
REMARK  143  A    between atoms: _375  and  _378
REMARK  144  A    between atoms: _378  and  _379
REMARK  145  A    between atoms: _389  and  _391
REMARK  146  A    between atoms: _391  and  _392
REMARK  147  A    between atoms: _391  and  _394
REMARK  148  A    between atoms: _394  and  _395
REMARK  149  A    between atoms: _395  and  _396
REMARK  150  A    between atoms: _399  and  _401
REMARK  151  A    between atoms: _401  and  _402
REMARK  152  A    between atoms: _401  and  _404
REMARK  153  A    between atoms: _404  and  _405
REMARK  154  A    between atoms: _405  and  _406
REMARK  155  A    between atoms: _411  and  _413
REMARK  156  A    between atoms: _413  and  _414
REMARK  157  A    between atoms: _413  and  _416
REMARK  158  A    between atoms: _420  and  _421
REMARK  159  A    between atoms: _426  and  _428
REMARK  160  A    between atoms: _428  and  _429
REMARK  161  A    between atoms: _428  and  _431
REMARK  162  A    between atoms: _431  and  _432
REMARK  163  A    between atoms: _438  and  _440
REMARK  164  A    between atoms: _440  and  _441
REMARK  165  A    between atoms: _440  and  _443
REMARK  166  A    between atoms: _443  and  _444
REMARK  167  A    between atoms: _449  and  _450
REMARK  168  A    between atoms: _452  and  _454
REMARK  169  A    between atoms: _454  and  _455
REMARK  170  A    between atoms: _457  and  _459
REMARK  171  A    between atoms: _459  and  _460
REMARK  172  A    between atoms: _459  and  _462
REMARK  173  A    between atoms: _462  and  _463
REMARK  174  A    between atoms: _463  and  _464
REMARK  175  A    between atoms: _464  and  _465
REMARK  176  A    between atoms: _474  and  _476
REMARK  177  A    between atoms: _476  and  _477
REMARK  178  A    between atoms: _476  and  _479
REMARK  179  A    between atoms: _479  and  _480
REMARK  180  A    between atoms: _483  and  _485
REMARK  181  A    between atoms: _485  and  _486
REMARK  182  A    between atoms: _485  and  _488
REMARK  183  A    between atoms: _488  and  _489
REMARK  184  A    between atoms: _492  and  _494
REMARK  185  A    between atoms: _494  and  _495
REMARK  186  A    between atoms: _494  and  _497
REMARK  187  A    between atoms: _497  and  _498
REMARK  188  A    between atoms: _501  and  _503
REMARK  189  A    between atoms: _503  and  _504
REMARK  190  A    between atoms: _503  and  _506
REMARK  191  A    between atoms: _506  and  _507
REMARK  192  A    between atoms: _507  and  _508
REMARK  193  A    between atoms: _508  and  _509
REMARK  194  A    between atoms: _518  and  _520
REMARK  195  A    between atoms: _520  and  _521
REMARK  196  A    between atoms: _520  and  _523
REMARK  197  A    between atoms: _523  and  _524
REMARK  198  A    between atoms: _527  and  _529
REMARK  199  A    between atoms: _529  and  _530
REMARK  200  A    between atoms: _533  and  _535
REMARK  201  A    between atoms: _535  and  _536
REMARK  202  A    between atoms: _535  and  _538
REMARK  203  A    between atoms: _538  and  _539
REMARK  204  A    between atoms: _541  and  _543
REMARK  205  A    between atoms: _543  and  _544
REMARK  206  A    between atoms: _543  and  _546
REMARK  207  A    between atoms: _546  and  _547
REMARK  208  A    between atoms: _547  and  _548
REMARK  209  A    between atoms: _550  and  _552
REMARK  210  A    between atoms: _552  and  _553
REMARK  211  A    between atoms: _552  and  _555
REMARK  212  A    between atoms: _555  and  _556
REMARK  213  A    between atoms: _562  and  _564
REMARK  214  A    between atoms: _564  and  _565
REMARK  215  A    between atoms: _564  and  _567
REMARK  216  A    between atoms: _567  and  _568
REMARK  217  A    between atoms: _578  and  _580
REMARK  218  A    between atoms: _580  and  _581
REMARK  219  A    between atoms: _580  and  _583
REMARK  220  A    between atoms: _583  and  _584
REMARK  221  A    between atoms: _589  and  _591
REMARK  222  A    between atoms: _591  and  _592
REMARK  223  A    between atoms: _591  and  _594
REMARK  224  A    between atoms: _594  and  _595
REMARK  225  A    between atoms: _595  and  _596
REMARK                            x       y       z     vdW  Elec       q    Type
REMARK                         _______ _______ _______ _____ _____    ______ ____
ROOT
ATOM      1  O   HOH     1      15.397  38.248 100.503  0.00  0.00    +0.000 OA
ENDROOT
TORSDOF 0
REMARK  Name = ../refined-set-2016/1ur9/1ur9_pocket.pdb
REMARK  225 active torsions:
REMARK  status: ('A' for Active; 'I' for Inactive)
REMARK    1  A    between atoms: _1  and  _3
REMARK    2  A    between atoms: _3  and  _4
REMARK    3  A    between atoms: _3  and  _6
REMARK    4  A    between atoms: _6  and  _7
REMARK    5  A    between atoms: _12  and  _13
REMARK    6  A    between atoms: _15  and  _17
REMARK    7  A    between atoms: _17  and  _18
REMARK    8  A    between atoms: _17  and  _20
REMARK    9  A    between atoms: _20  and  _21
REMARK   10  A    between atoms: _28  and  _29
REMARK   11  A    between atoms: _34  and  _36
REMARK   12  A    between atoms: _36  and  _37
REMARK   13  A    between atoms: _36  and  _39
REMARK   14  A    between atoms: _39  and  _40
REMARK   15  A    between atoms: _45  and  _47
REMARK   16  A    between atoms: _47  and  _48
REMARK   17  A    between atoms: _47  and  _50
REMARK   18  A    between atoms: _50  and  _51
REMARK   19  A    between atoms: _53  and  _55
REMARK   20  A    between atoms: _55  and  _56
REMARK   21  A    between atoms: _55  and  _58
REMARK   22  A    between atoms: _58  and  _59
REMARK   23  A    between atoms: _65  and  _67
REMARK   24  A    between atoms: _67  and  _68
REMARK   25  A    between atoms: _67  and  _70
REMARK   26  A    between atoms: _70  and  _71
REMARK   27  A    between atoms: _73  and  _75
REMARK   28  A    between atoms: _75  and  _76
REMARK   29  A    between atoms: _78  and  _80
REMARK   30  A    between atoms: _80  and  _81
REMARK   31  A    between atoms: _83  and  _85
REMARK   32  A    between atoms: _85  and  _86
REMARK   33  A    between atoms: _85  and  _88
REMARK   34  A    between atoms: _88  and  _89
REMARK   35  A    between atoms: _99  and  _101
REMARK   36  A    between atoms: _101  and  _102
REMARK   37  A    between atoms: _101  and  _104
REMARK   38  A    between atoms: _104  and  _105
REMARK   39  A    between atoms: _110  and  _111
REMARK   40  A    between atoms: _113  and  _115
REMARK   41  A    between atoms: _115  and  _116
REMARK   42  A    between atoms: _115  and  _118
REMARK   43  A    between atoms: _118  and  _119
REMARK   44  A    between atoms: _124  and  _125
REMARK   45  A    between atoms: _127  and  _129
REMARK   46  A    between atoms: _129  and  _130
REMARK   47  A    between atoms: _129  and  _132
REMARK   48  A    between atoms: _132  and  _133
REMARK   49  A    between atoms: _135  and  _137
REMARK   50  A    between atoms: _137  and  _138
REMARK   51  A    between atoms: _137  and  _140
REMARK   52  A    between atoms: _140  and  _141
REMARK   53  A    between atoms: _146  and  _148
REMARK   54  A    between atoms: _148  and  _149
REMARK   55  A    between atoms: _148  and  _151
REMARK   56  A    between atoms: _151  and  _152
REMARK   57  A    between atoms: _155  and  _157
REMARK   58  A    between atoms: _157  and  _158
REMARK   59  A    between atoms: _157  and  _160
REMARK   60  A    between atoms: _160  and  _161
REMARK   61  A    between atoms: _164  and  _166
REMARK   62  A    between atoms: _166  and  _167
REMARK   63  A    between atoms: _166  and  _169
REMARK   64  A    between atoms: _169  and  _170
REMARK   65  A    between atoms: _175  and  _177
REMARK   66  A    between atoms: _177  and  _178
REMARK   67  A    between atoms: _177  and  _180
REMARK   68  A    between atoms: _180  and  _181
REMARK   69  A    between atoms: _191  and  _193
REMARK   70  A    between atoms: _193  and  _194
REMARK   71  A    between atoms: _193  and  _196
REMARK   72  A    between atoms: _196  and  _197
REMARK   73  A    between atoms: _197  and  _198
REMARK   74  A    between atoms: _201  and  _203
REMARK   75  A    between atoms: _203  and  _204
REMARK   76  A    between atoms: _203  and  _206
REMARK   77  A    between atoms: _206  and  _207
REMARK   78  A    between atoms: _212  and  _213
REMARK   79  A    between atoms: _215  and  _217
REMARK   80  A    between atoms: _217  and  _218
REMARK   81  A    between atoms: _217  and  _220
REMARK   82  A    between atoms: _220  and  _221
REMARK   83  A    between atoms: _224  and  _226
REMARK   84  A    between atoms: _226  and  _227
REMARK   85  A    between atoms: _230  and  _232
REMARK   86  A    between atoms: _232  and  _233
REMARK   87  A    between atoms: _235  and  _237
REMARK   88  A    between atoms: _237  and  _238
REMARK   89  A    between atoms: _241  and  _243
REMARK   90  A    between atoms: _243  and  _244
REMARK   91  A    between atoms: _246  and  _248
REMARK   92  A    between atoms: _248  and  _249
REMARK   93  A    between atoms: _251  and  _253
REMARK   94  A    between atoms: _253  and  _254
REMARK   95  A    between atoms: _253  and  _256
REMARK   96  A    between atoms: _256  and  _257
REMARK   97  A    between atoms: _263  and  _265
REMARK   98  A    between atoms: _265  and  _266
REMARK   99  A    between atoms: _265  and  _268
REMARK  100  A    between atoms: _268  and  _269
REMARK  101  A    between atoms: _275  and  _277
REMARK  102  A    between atoms: _277  and  _278
REMARK  103  A    between atoms: _277  and  _280
REMARK  104  A    between atoms: _280  and  _281
REMARK  105  A    between atoms: _281  and  _282
REMARK  106  A    between atoms: _282  and  _283
REMARK  107  A    between atoms: _292  and  _294
REMARK  108  A    between atoms: _294  and  _295
REMARK  109  A    between atoms: _294  and  _297
REMARK  110  A    between atoms: _297  and  _298
REMARK  111  A    between atoms: _303  and  _305
REMARK  112  A    between atoms: _305  and  _306
REMARK  113  A    between atoms: _305  and  _308
REMARK  114  A    between atoms: _308  and  _309
REMARK  115  A    between atoms: _312  and  _314
REMARK  116  A    between atoms: _314  and  _315
REMARK  117  A    between atoms: _314  and  _317
REMARK  118  A    between atoms: _317  and  _318
REMARK  119  A    between atoms: _318  and  _319
REMARK  120  A    between atoms: _321  and  _323
REMARK  121  A    between atoms: _323  and  _324
REMARK  122  A    between atoms: _323  and  _326
REMARK  123  A    between atoms: _326  and  _327
REMARK  124  A    between atoms: _330  and  _332
REMARK  125  A    between atoms: _332  and  _333
REMARK  126  A    between atoms: _332  and  _335
REMARK  127  A    between atoms: _335  and  _336
REMARK  128  A    between atoms: _341  and  _342
REMARK  129  A    between atoms: _344  and  _346
REMARK  130  A    between atoms: _346  and  _347
REMARK  131  A    between atoms: _346  and  _349
REMARK  132  A    between atoms: _349  and  _350
REMARK  133  A    between atoms: _353  and  _355
REMARK  134  A    between atoms: _355  and  _356
REMARK  135  A    between atoms: _355  and  _358
REMARK  136  A    between atoms: _358  and  _359
REMARK  137  A    between atoms: _362  and  _364
REMARK  138  A    between atoms: _364  and  _365
REMARK  139  A    between atoms: _368  and  _370
REMARK  140  A    between atoms: _370  and  _371
REMARK  141  A    between atoms: _373  and  _375
REMARK  142  A    between atoms: _375  and  _376
REMARK  143  A    between atoms: _375  and  _378
REMARK  144  A    between atoms: _378  and  _379
REMARK  145  A    between atoms: _389  and  _391
REMARK  146  A    between atoms: _391  and  _392
REMARK  147  A    between atoms: _391  and  _394
REMARK  148  A    between atoms: _394  and  _395
REMARK  149  A    between atoms: _395  and  _396
REMARK  150  A    between atoms: _399  and  _401
REMARK  151  A    between atoms: _401  and  _402
REMARK  152  A    between atoms: _401  and  _404
REMARK  153  A    between atoms: _404  and  _405
REMARK  154  A    between atoms: _405  and  _406
REMARK  155  A    between atoms: _411  and  _413
REMARK  156  A    between atoms: _413  and  _414
REMARK  157  A    between atoms: _413  and  _416
REMARK  158  A    between atoms: _420  and  _421
REMARK  159  A    between atoms: _426  and  _428
REMARK  160  A    between atoms: _428  and  _429
REMARK  161  A    between atoms: _428  and  _431
REMARK  162  A    between atoms: _431  and  _432
REMARK  163  A    between atoms: _438  and  _440
REMARK  164  A    between atoms: _440  and  _441
REMARK  165  A    between atoms: _440  and  _443
REMARK  166  A    between atoms: _443  and  _444
REMARK  167  A    between atoms: _449  and  _450
REMARK  168  A    between atoms: _452  and  _454
REMARK  169  A    between atoms: _454  and  _455
REMARK  170  A    between atoms: _457  and  _459
REMARK  171  A    between atoms: _459  and  _460
REMARK  172  A    between atoms: _459  and  _462
REMARK  173  A    between atoms: _462  and  _463
REMARK  174  A    between atoms: _463  and  _464
REMARK  175  A    between atoms: _464  and  _465
REMARK  176  A    between atoms: _474  and  _476
REMARK  177  A    between atoms: _476  and  _477
REMARK  178  A    between atoms: _476  and  _479
REMARK  179  A    between atoms: _479  and  _480
REMARK  180  A    between atoms: _483  and  _485
REMARK  181  A    between atoms: _485  and  _486
REMARK  182  A    between atoms: _485  and  _488
REMARK  183  A    between atoms: _488  and  _489
REMARK  184  A    between atoms: _492  and  _494
REMARK  185  A    between atoms: _494  and  _495
REMARK  186  A    between atoms: _494  and  _497
REMARK  187  A    between atoms: _497  and  _498
REMARK  188  A    between atoms: _501  and  _503
REMARK  189  A    between atoms: _503  and  _504
REMARK  190  A    between atoms: _503  and  _506
REMARK  191  A    between atoms: _506  and  _507
REMARK  192  A    between atoms: _507  and  _508
REMARK  193  A    between atoms: _508  and  _509
REMARK  194  A    between atoms: _518  and  _520
REMARK  195  A    between atoms: _520  and  _521
REMARK  196  A    between atoms: _520  and  _523
REMARK  197  A    between atoms: _523  and  _524
REMARK  198  A    between atoms: _527  and  _529
REMARK  199  A    between atoms: _529  and  _530
REMARK  200  A    between atoms: _533  and  _535
REMARK  201  A    between atoms: _535  and  _536
REMARK  202  A    between atoms: _535  and  _538
REMARK  203  A    between atoms: _538  and  _539
REMARK  204  A    between atoms: _541  and  _543
REMARK  205  A    between atoms: _543  and  _544
REMARK  206  A    between atoms: _543  and  _546
REMARK  207  A    between atoms: _546  and  _547
REMARK  208  A    between atoms: _547  and  _548
REMARK  209  A    between atoms: _550  and  _552
REMARK  210  A    between atoms: _552  and  _553
REMARK  211  A    between atoms: _552  and  _555
REMARK  212  A    between atoms: _555  and  _556
REMARK  213  A    between atoms: _562  and  _564
REMARK  214  A    between atoms: _564  and  _565
REMARK  215  A    between atoms: _564  and  _567
REMARK  216  A    between atoms: _567  and  _568
REMARK  217  A    between atoms: _578  and  _580
REMARK  218  A    between atoms: _580  and  _581
REMARK  219  A    between atoms: _580  and  _583
REMARK  220  A    between atoms: _583  and  _584
REMARK  221  A    between atoms: _589  and  _591
REMARK  222  A    between atoms: _591  and  _592
REMARK  223  A    between atoms: _591  and  _594
REMARK  224  A    between atoms: _594  and  _595
REMARK  225  A    between atoms: _595  and  _596
REMARK                            x       y       z     vdW  Elec       q    Type
REMARK                         _______ _______ _______ _____ _____    ______ ____
ROOT
ATOM      1  O   HOH     1       9.364  41.790 104.073  0.00  0.00    +0.000 OA
ENDROOT
TORSDOF 0
REMARK  Name = ../refined-set-2016/1ur9/1ur9_pocket.pdb
REMARK  225 active torsions:
REMARK  status: ('A' for Active; 'I' for Inactive)
REMARK    1  A    between atoms: _1  and  _3
REMARK    2  A    between atoms: _3  and  _4
REMARK    3  A    between atoms: _3  and  _6
REMARK    4  A    between atoms: _6  and  _7
REMARK    5  A    between atoms: _12  and  _13
REMARK    6  A    between atoms: _15  and  _17
REMARK    7  A    between atoms: _17  and  _18
REMARK    8  A    between atoms: _17  and  _20
REMARK    9  A    between atoms: _20  and  _21
REMARK   10  A    between atoms: _28  and  _29
REMARK   11  A    between atoms: _34  and  _36
REMARK   12  A    between atoms: _36  and  _37
REMARK   13  A    between atoms: _36  and  _39
REMARK   14  A    between atoms: _39  and  _40
REMARK   15  A    between atoms: _45  and  _47
REMARK   16  A    between atoms: _47  and  _48
REMARK   17  A    between atoms: _47  and  _50
REMARK   18  A    between atoms: _50  and  _51
REMARK   19  A    between atoms: _53  and  _55
REMARK   20  A    between atoms: _55  and  _56
REMARK   21  A    between atoms: _55  and  _58
REMARK   22  A    between atoms: _58  and  _59
REMARK   23  A    between atoms: _65  and  _67
REMARK   24  A    between atoms: _67  and  _68
REMARK   25  A    between atoms: _67  and  _70
REMARK   26  A    between atoms: _70  and  _71
REMARK   27  A    between atoms: _73  and  _75
REMARK   28  A    between atoms: _75  and  _76
REMARK   29  A    between atoms: _78  and  _80
REMARK   30  A    between atoms: _80  and  _81
REMARK   31  A    between atoms: _83  and  _85
REMARK   32  A    between atoms: _85  and  _86
REMARK   33  A    between atoms: _85  and  _88
REMARK   34  A    between atoms: _88  and  _89
REMARK   35  A    between atoms: _99  and  _101
REMARK   36  A    between atoms: _101  and  _102
REMARK   37  A    between atoms: _101  and  _104
REMARK   38  A    between atoms: _104  and  _105
REMARK   39  A    between atoms: _110  and  _111
REMARK   40  A    between atoms: _113  and  _115
REMARK   41  A    between atoms: _115  and  _116
REMARK   42  A    between atoms: _115  and  _118
REMARK   43  A    between atoms: _118  and  _119
REMARK   44  A    between atoms: _124  and  _125
REMARK   45  A    between atoms: _127  and  _129
REMARK   46  A    between atoms: _129  and  _130
REMARK   47  A    between atoms: _129  and  _132
REMARK   48  A    between atoms: _132  and  _133
REMARK   49  A    between atoms: _135  and  _137
REMARK   50  A    between atoms: _137  and  _138
REMARK   51  A    between atoms: _137  and  _140
REMARK   52  A    between atoms: _140  and  _141
REMARK   53  A    between atoms: _146  and  _148
REMARK   54  A    between atoms: _148  and  _149
REMARK   55  A    between atoms: _148  and  _151
REMARK   56  A    between atoms: _151  and  _152
REMARK   57  A    between atoms: _155  and  _157
REMARK   58  A    between atoms: _157  and  _158
REMARK   59  A    between atoms: _157  and  _160
REMARK   60  A    between atoms: _160  and  _161
REMARK   61  A    between atoms: _164  and  _166
REMARK   62  A    between atoms: _166  and  _167
REMARK   63  A    between atoms: _166  and  _169
REMARK   64  A    between atoms: _169  and  _170
REMARK   65  A    between atoms: _175  and  _177
REMARK   66  A    between atoms: _177  and  _178
REMARK   67  A    between atoms: _177  and  _180
REMARK   68  A    between atoms: _180  and  _181
REMARK   69  A    between atoms: _191  and  _193
REMARK   70  A    between atoms: _193  and  _194
REMARK   71  A    between atoms: _193  and  _196
REMARK   72  A    between atoms: _196  and  _197
REMARK   73  A    between atoms: _197  and  _198
REMARK   74  A    between atoms: _201  and  _203
REMARK   75  A    between atoms: _203  and  _204
REMARK   76  A    between atoms: _203  and  _206
REMARK   77  A    between atoms: _206  and  _207
REMARK   78  A    between atoms: _212  and  _213
REMARK   79  A    between atoms: _215  and  _217
REMARK   80  A    between atoms: _217  and  _218
REMARK   81  A    between atoms: _217  and  _220
REMARK   82  A    between atoms: _220  and  _221
REMARK   83  A    between atoms: _224  and  _226
REMARK   84  A    between atoms: _226  and  _227
REMARK   85  A    between atoms: _230  and  _232
REMARK   86  A    between atoms: _232  and  _233
REMARK   87  A    between atoms: _235  and  _237
REMARK   88  A    between atoms: _237  and  _238
REMARK   89  A    between atoms: _241  and  _243
REMARK   90  A    between atoms: _243  and  _244
REMARK   91  A    between atoms: _246  and  _248
REMARK   92  A    between atoms: _248  and  _249
REMARK   93  A    between atoms: _251  and  _253
REMARK   94  A    between atoms: _253  and  _254
REMARK   95  A    between atoms: _253  and  _256
REMARK   96  A    between atoms: _256  and  _257
REMARK   97  A    between atoms: _263  and  _265
REMARK   98  A    between atoms: _265  and  _266
REMARK   99  A    between atoms: _265  and  _268
REMARK  100  A    between atoms: _268  and  _269
REMARK  101  A    between atoms: _275  and  _277
REMARK  102  A    between atoms: _277  and  _278
REMARK  103  A    between atoms: _277  and  _280
REMARK  104  A    between atoms: _280  and  _281
REMARK  105  A    between atoms: _281  and  _282
REMARK  106  A    between atoms: _282  and  _283
REMARK  107  A    between atoms: _292  and  _294
REMARK  108  A    between atoms: _294  and  _295
REMARK  109  A    between atoms: _294  and  _297
REMARK  110  A    between atoms: _297  and  _298
REMARK  111  A    between atoms: _303  and  _305
REMARK  112  A    between atoms: _305  and  _306
REMARK  113  A    between atoms: _305  and  _308
REMARK  114  A    between atoms: _308  and  _309
REMARK  115  A    between atoms: _312  and  _314
REMARK  116  A    between atoms: _314  and  _315
REMARK  117  A    between atoms: _314  and  _317
REMARK  118  A    between atoms: _317  and  _318
REMARK  119  A    between atoms: _318  and  _319
REMARK  120  A    between atoms: _321  and  _323
REMARK  121  A    between atoms: _323  and  _324
REMARK  122  A    between atoms: _323  and  _326
REMARK  123  A    between atoms: _326  and  _327
REMARK  124  A    between atoms: _330  and  _332
REMARK  125  A    between atoms: _332  and  _333
REMARK  126  A    between atoms: _332  and  _335
REMARK  127  A    between atoms: _335  and  _336
REMARK  128  A    between atoms: _341  and  _342
REMARK  129  A    between atoms: _344  and  _346
REMARK  130  A    between atoms: _346  and  _347
REMARK  131  A    between atoms: _346  and  _349
REMARK  132  A    between atoms: _349  and  _350
REMARK  133  A    between atoms: _353  and  _355
REMARK  134  A    between atoms: _355  and  _356
REMARK  135  A    between atoms: _355  and  _358
REMARK  136  A    between atoms: _358  and  _359
REMARK  137  A    between atoms: _362  and  _364
REMARK  138  A    between atoms: _364  and  _365
REMARK  139  A    between atoms: _368  and  _370
REMARK  140  A    between atoms: _370  and  _371
REMARK  141  A    between atoms: _373  and  _375
REMARK  142  A    between atoms: _375  and  _376
REMARK  143  A    between atoms: _375  and  _378
REMARK  144  A    between atoms: _378  and  _379
REMARK  145  A    between atoms: _389  and  _391
REMARK  146  A    between atoms: _391  and  _392
REMARK  147  A    between atoms: _391  and  _394
REMARK  148  A    between atoms: _394  and  _395
REMARK  149  A    between atoms: _395  and  _396
REMARK  150  A    between atoms: _399  and  _401
REMARK  151  A    between atoms: _401  and  _402
REMARK  152  A    between atoms: _401  and  _404
REMARK  153  A    between atoms: _404  and  _405
REMARK  154  A    between atoms: _405  and  _406
REMARK  155  A    between atoms: _411  and  _413
REMARK  156  A    between atoms: _413  and  _414
REMARK  157  A    between atoms: _413  and  _416
REMARK  158  A    between atoms: _420  and  _421
REMARK  159  A    between atoms: _426  and  _428
REMARK  160  A    between atoms: _428  and  _429
REMARK  161  A    between atoms: _428  and  _431
REMARK  162  A    between atoms: _431  and  _432
REMARK  163  A    between atoms: _438  and  _440
REMARK  164  A    between atoms: _440  and  _441
REMARK  165  A    between atoms: _440  and  _443
REMARK  166  A    between atoms: _443  and  _444
REMARK  167  A    between atoms: _449  and  _450
REMARK  168  A    between atoms: _452  and  _454
REMARK  169  A    between atoms: _454  and  _455
REMARK  170  A    between atoms: _457  and  _459
REMARK  171  A    between atoms: _459  and  _460
REMARK  172  A    between atoms: _459  and  _462
REMARK  173  A    between atoms: _462  and  _463
REMARK  174  A    between atoms: _463  and  _464
REMARK  175  A    between atoms: _464  and  _465
REMARK  176  A    between atoms: _474  and  _476
REMARK  177  A    between atoms: _476  and  _477
REMARK  178  A    between atoms: _476  and  _479
REMARK  179  A    between atoms: _479  and  _480
REMARK  180  A    between atoms: _483  and  _485
REMARK  181  A    between atoms: _485  and  _486
REMARK  182  A    between atoms: _485  and  _488
REMARK  183  A    between atoms: _488  and  _489
REMARK  184  A    between atoms: _492  and  _494
REMARK  185  A    between atoms: _494  and  _495
REMARK  186  A    between atoms: _494  and  _497
REMARK  187  A    between atoms: _497  and  _498
REMARK  188  A    between atoms: _501  and  _503
REMARK  189  A    between atoms: _503  and  _504
REMARK  190  A    between atoms: _503  and  _506
REMARK  191  A    between atoms: _506  and  _507
REMARK  192  A    between atoms: _507  and  _508
REMARK  193  A    between atoms: _508  and  _509
REMARK  194  A    between atoms: _518  and  _520
REMARK  195  A    between atoms: _520  and  _521
REMARK  196  A    between atoms: _520  and  _523
REMARK  197  A    between atoms: _523  and  _524
REMARK  198  A    between atoms: _527  and  _529
REMARK  199  A    between atoms: _529  and  _530
REMARK  200  A    between atoms: _533  and  _535
REMARK  201  A    between atoms: _535  and  _536
REMARK  202  A    between atoms: _535  and  _538
REMARK  203  A    between atoms: _538  and  _539
REMARK  204  A    between atoms: _541  and  _543
REMARK  205  A    between atoms: _543  and  _544
REMARK  206  A    between atoms: _543  and  _546
REMARK  207  A    between atoms: _546  and  _547
REMARK  208  A    between atoms: _547  and  _548
REMARK  209  A    between atoms: _550  and  _552
REMARK  210  A    between atoms: _552  and  _553
REMARK  211  A    between atoms: _552  and  _555
REMARK  212  A    between atoms: _555  and  _556
REMARK  213  A    between atoms: _562  and  _564
REMARK  214  A    between atoms: _564  and  _565
REMARK  215  A    between atoms: _564  and  _567
REMARK  216  A    between atoms: _567  and  _568
REMARK  217  A    between atoms: _578  and  _580
REMARK  218  A    between atoms: _580  and  _581
REMARK  219  A    between atoms: _580  and  _583
REMARK  220  A    between atoms: _583  and  _584
REMARK  221  A    between atoms: _589  and  _591
REMARK  222  A    between atoms: _591  and  _592
REMARK  223  A    between atoms: _591  and  _594
REMARK  224  A    between atoms: _594  and  _595
REMARK  225  A    between atoms: _595  and  _596
REMARK                            x       y       z     vdW  Elec       q    Type
REMARK                         _______ _______ _______ _____ _____    ______ ____
ROOT
ATOM      1  O   HOH     1      19.573  32.668 100.506  0.00  0.00    +0.000 OA
ENDROOT
TORSDOF 0
REMARK  Name = ../refined-set-2016/1ur9/1ur9_pocket.pdb
REMARK  225 active torsions:
REMARK  status: ('A' for Active; 'I' for Inactive)
REMARK    1  A    between atoms: _1  and  _3
REMARK    2  A    between atoms: _3  and  _4
REMARK    3  A    between atoms: _3  and  _6
REMARK    4  A    between atoms: _6  and  _7
REMARK    5  A    between atoms: _12  and  _13
REMARK    6  A    between atoms: _15  and  _17
REMARK    7  A    between atoms: _17  and  _18
REMARK    8  A    between atoms: _17  and  _20
REMARK    9  A    between atoms: _20  and  _21
REMARK   10  A    between atoms: _28  and  _29
REMARK   11  A    between atoms: _34  and  _36
REMARK   12  A    between atoms: _36  and  _37
REMARK   13  A    between atoms: _36  and  _39
REMARK   14  A    between atoms: _39  and  _40
REMARK   15  A    between atoms: _45  and  _47
REMARK   16  A    between atoms: _47  and  _48
REMARK   17  A    between atoms: _47  and  _50
REMARK   18  A    between atoms: _50  and  _51
REMARK   19  A    between atoms: _53  and  _55
REMARK   20  A    between atoms: _55  and  _56
REMARK   21  A    between atoms: _55  and  _58
REMARK   22  A    between atoms: _58  and  _59
REMARK   23  A    between atoms: _65  and  _67
REMARK   24  A    between atoms: _67  and  _68
REMARK   25  A    between atoms: _67  and  _70
REMARK   26  A    between atoms: _70  and  _71
REMARK   27  A    between atoms: _73  and  _75
REMARK   28  A    between atoms: _75  and  _76
REMARK   29  A    between atoms: _78  and  _80
REMARK   30  A    between atoms: _80  and  _81
REMARK   31  A    between atoms: _83  and  _85
REMARK   32  A    between atoms: _85  and  _86
REMARK   33  A    between atoms: _85  and  _88
REMARK   34  A    between atoms: _88  and  _89
REMARK   35  A    between atoms: _99  and  _101
REMARK   36  A    between atoms: _101  and  _102
REMARK   37  A    between atoms: _101  and  _104
REMARK   38  A    between atoms: _104  and  _105
REMARK   39  A    between atoms: _110  and  _111
REMARK   40  A    between atoms: _113  and  _115
REMARK   41  A    between atoms: _115  and  _116
REMARK   42  A    between atoms: _115  and  _118
REMARK   43  A    between atoms: _118  and  _119
REMARK   44  A    between atoms: _124  and  _125
REMARK   45  A    between atoms: _127  and  _129
REMARK   46  A    between atoms: _129  and  _130
REMARK   47  A    between atoms: _129  and  _132
REMARK   48  A    between atoms: _132  and  _133
REMARK   49  A    between atoms: _135  and  _137
REMARK   50  A    between atoms: _137  and  _138
REMARK   51  A    between atoms: _137  and  _140
REMARK   52  A    between atoms: _140  and  _141
REMARK   53  A    between atoms: _146  and  _148
REMARK   54  A    between atoms: _148  and  _149
REMARK   55  A    between atoms: _148  and  _151
REMARK   56  A    between atoms: _151  and  _152
REMARK   57  A    between atoms: _155  and  _157
REMARK   58  A    between atoms: _157  and  _158
REMARK   59  A    between atoms: _157  and  _160
REMARK   60  A    between atoms: _160  and  _161
REMARK   61  A    between atoms: _164  and  _166
REMARK   62  A    between atoms: _166  and  _167
REMARK   63  A    between atoms: _166  and  _169
REMARK   64  A    between atoms: _169  and  _170
REMARK   65  A    between atoms: _175  and  _177
REMARK   66  A    between atoms: _177  and  _178
REMARK   67  A    between atoms: _177  and  _180
REMARK   68  A    between atoms: _180  and  _181
REMARK   69  A    between atoms: _191  and  _193
REMARK   70  A    between atoms: _193  and  _194
REMARK   71  A    between atoms: _193  and  _196
REMARK   72  A    between atoms: _196  and  _197
REMARK   73  A    between atoms: _197  and  _198
REMARK   74  A    between atoms: _201  and  _203
REMARK   75  A    between atoms: _203  and  _204
REMARK   76  A    between atoms: _203  and  _206
REMARK   77  A    between atoms: _206  and  _207
REMARK   78  A    between atoms: _212  and  _213
REMARK   79  A    between atoms: _215  and  _217
REMARK   80  A    between atoms: _217  and  _218
REMARK   81  A    between atoms: _217  and  _220
REMARK   82  A    between atoms: _220  and  _221
REMARK   83  A    between atoms: _224  and  _226
REMARK   84  A    between atoms: _226  and  _227
REMARK   85  A    between atoms: _230  and  _232
REMARK   86  A    between atoms: _232  and  _233
REMARK   87  A    between atoms: _235  and  _237
REMARK   88  A    between atoms: _237  and  _238
REMARK   89  A    between atoms: _241  and  _243
REMARK   90  A    between atoms: _243  and  _244
REMARK   91  A    between atoms: _246  and  _248
REMARK   92  A    between atoms: _248  and  _249
REMARK   93  A    between atoms: _251  and  _253
REMARK   94  A    between atoms: _253  and  _254
REMARK   95  A    between atoms: _253  and  _256
REMARK   96  A    between atoms: _256  and  _257
REMARK   97  A    between atoms: _263  and  _265
REMARK   98  A    between atoms: _265  and  _266
REMARK   99  A    between atoms: _265  and  _268
REMARK  100  A    between atoms: _268  and  _269
REMARK  101  A    between atoms: _275  and  _277
REMARK  102  A    between atoms: _277  and  _278
REMARK  103  A    between atoms: _277  and  _280
REMARK  104  A    between atoms: _280  and  _281
REMARK  105  A    between atoms: _281  and  _282
REMARK  106  A    between atoms: _282  and  _283
REMARK  107  A    between atoms: _292  and  _294
REMARK  108  A    between atoms: _294  and  _295
REMARK  109  A    between atoms: _294  and  _297
REMARK  110  A    between atoms: _297  and  _298
REMARK  111  A    between atoms: _303  and  _305
REMARK  112  A    between atoms: _305  and  _306
REMARK  113  A    between atoms: _305  and  _308
REMARK  114  A    between atoms: _308  and  _309
REMARK  115  A    between atoms: _312  and  _314
REMARK  116  A    between atoms: _314  and  _315
REMARK  117  A    between atoms: _314  and  _317
REMARK  118  A    between atoms: _317  and  _318
REMARK  119  A    between atoms: _318  and  _319
REMARK  120  A    between atoms: _321  and  _323
REMARK  121  A    between atoms: _323  and  _324
REMARK  122  A    between atoms: _323  and  _326
REMARK  123  A    between atoms: _326  and  _327
REMARK  124  A    between atoms: _330  and  _332
REMARK  125  A    between atoms: _332  and  _333
REMARK  126  A    between atoms: _332  and  _335
REMARK  127  A    between atoms: _335  and  _336
REMARK  128  A    between atoms: _341  and  _342
REMARK  129  A    between atoms: _344  and  _346
REMARK  130  A    between atoms: _346  and  _347
REMARK  131  A    between atoms: _346  and  _349
REMARK  132  A    between atoms: _349  and  _350
REMARK  133  A    between atoms: _353  and  _355
REMARK  134  A    between atoms: _355  and  _356
REMARK  135  A    between atoms: _355  and  _358
REMARK  136  A    between atoms: _358  and  _359
REMARK  137  A    between atoms: _362  and  _364
REMARK  138  A    between atoms: _364  and  _365
REMARK  139  A    between atoms: _368  and  _370
REMARK  140  A    between atoms: _370  and  _371
REMARK  141  A    between atoms: _373  and  _375
REMARK  142  A    between atoms: _375  and  _376
REMARK  143  A    between atoms: _375  and  _378
REMARK  144  A    between atoms: _378  and  _379
REMARK  145  A    between atoms: _389  and  _391
REMARK  146  A    between atoms: _391  and  _392
REMARK  147  A    between atoms: _391  and  _394
REMARK  148  A    between atoms: _394  and  _395
REMARK  149  A    between atoms: _395  and  _396
REMARK  150  A    between atoms: _399  and  _401
REMARK  151  A    between atoms: _401  and  _402
REMARK  152  A    between atoms: _401  and  _404
REMARK  153  A    between atoms: _404  and  _405
REMARK  154  A    between atoms: _405  and  _406
REMARK  155  A    between atoms: _411  and  _413
REMARK  156  A    between atoms: _413  and  _414
REMARK  157  A    between atoms: _413  and  _416
REMARK  158  A    between atoms: _420  and  _421
REMARK  159  A    between atoms: _426  and  _428
REMARK  160  A    between atoms: _428  and  _429
REMARK  161  A    between atoms: _428  and  _431
REMARK  162  A    between atoms: _431  and  _432
REMARK  163  A    between atoms: _438  and  _440
REMARK  164  A    between atoms: _440  and  _441
REMARK  165  A    between atoms: _440  and  _443
REMARK  166  A    between atoms: _443  and  _444
REMARK  167  A    between atoms: _449  and  _450
REMARK  168  A    between atoms: _452  and  _454
REMARK  169  A    between atoms: _454  and  _455
REMARK  170  A    between atoms: _457  and  _459
REMARK  171  A    between atoms: _459  and  _460
REMARK  172  A    between atoms: _459  and  _462
REMARK  173  A    between atoms: _462  and  _463
REMARK  174  A    between atoms: _463  and  _464
REMARK  175  A    between atoms: _464  and  _465
REMARK  176  A    between atoms: _474  and  _476
REMARK  177  A    between atoms: _476  and  _477
REMARK  178  A    between atoms: _476  and  _479
REMARK  179  A    between atoms: _479  and  _480
REMARK  180  A    between atoms: _483  and  _485
REMARK  181  A    between atoms: _485  and  _486
REMARK  182  A    between atoms: _485  and  _488
REMARK  183  A    between atoms: _488  and  _489
REMARK  184  A    between atoms: _492  and  _494
REMARK  185  A    between atoms: _494  and  _495
REMARK  186  A    between atoms: _494  and  _497
REMARK  187  A    between atoms: _497  and  _498
REMARK  188  A    between atoms: _501  and  _503
REMARK  189  A    between atoms: _503  and  _504
REMARK  190  A    between atoms: _503  and  _506
REMARK  191  A    between atoms: _506  and  _507
REMARK  192  A    between atoms: _507  and  _508
REMARK  193  A    between atoms: _508  and  _509
REMARK  194  A    between atoms: _518  and  _520
REMARK  195  A    between atoms: _520  and  _521
REMARK  196  A    between atoms: _520  and  _523
REMARK  197  A    between atoms: _523  and  _524
REMARK  198  A    between atoms: _527  and  _529
REMARK  199  A    between atoms: _529  and  _530
REMARK  200  A    between atoms: _533  and  _535
REMARK  201  A    between atoms: _535  and  _536
REMARK  202  A    between atoms: _535  and  _538
REMARK  203  A    between atoms: _538  and  _539
REMARK  204  A    between atoms: _541  and  _543
REMARK  205  A    between atoms: _543  and  _544
REMARK  206  A    between atoms: _543  and  _546
REMARK  207  A    between atoms: _546  and  _547
REMARK  208  A    between atoms: _547  and  _548
REMARK  209  A    between atoms: _550  and  _552
REMARK  210  A    between atoms: _552  and  _553
REMARK  211  A    between atoms: _552  and  _555
REMARK  212  A    between atoms: _555  and  _556
REMARK  213  A    between atoms: _562  and  _564
REMARK  214  A    between atoms: _564  and  _565
REMARK  215  A    between atoms: _564  and  _567
REMARK  216  A    between atoms: _567  and  _568
REMARK  217  A    between atoms: _578  and  _580
REMARK  218  A    between atoms: _580  and  _581
REMARK  219  A    between atoms: _580  and  _583
REMARK  220  A    between atoms: _583  and  _584
REMARK  221  A    between atoms: _589  and  _591
REMARK  222  A    between atoms: _591  and  _592
REMARK  223  A    between atoms: _591  and  _594
REMARK  224  A    between atoms: _594  and  _595
REMARK  225  A    between atoms: _595  and  _596
REMARK                            x       y       z     vdW  Elec       q    Type
REMARK                         _______ _______ _______ _____ _____    ______ ____
ROOT
ATOM      1  O   HOH     1      17.505  35.025 104.565  0.00  0.00    +0.000 OA
ENDROOT
TORSDOF 0
REMARK  Name = ../refined-set-2016/1ur9/1ur9_pocket.pdb
REMARK  225 active torsions:
REMARK  status: ('A' for Active; 'I' for Inactive)
REMARK    1  A    between atoms: _1  and  _3
REMARK    2  A    between atoms: _3  and  _4
REMARK    3  A    between atoms: _3  and  _6
REMARK    4  A    between atoms: _6  and  _7
REMARK    5  A    between atoms: _12  and  _13
REMARK    6  A    between atoms: _15  and  _17
REMARK    7  A    between atoms: _17  and  _18
REMARK    8  A    between atoms: _17  and  _20
REMARK    9  A    between atoms: _20  and  _21
REMARK   10  A    between atoms: _28  and  _29
REMARK   11  A    between atoms: _34  and  _36
REMARK   12  A    between atoms: _36  and  _37
REMARK   13  A    between atoms: _36  and  _39
REMARK   14  A    between atoms: _39  and  _40
REMARK   15  A    between atoms: _45  and  _47
REMARK   16  A    between atoms: _47  and  _48
REMARK   17  A    between atoms: _47  and  _50
REMARK   18  A    between atoms: _50  and  _51
REMARK   19  A    between atoms: _53  and  _55
REMARK   20  A    between atoms: _55  and  _56
REMARK   21  A    between atoms: _55  and  _58
REMARK   22  A    between atoms: _58  and  _59
REMARK   23  A    between atoms: _65  and  _67
REMARK   24  A    between atoms: _67  and  _68
REMARK   25  A    between atoms: _67  and  _70
REMARK   26  A    between atoms: _70  and  _71
REMARK   27  A    between atoms: _73  and  _75
REMARK   28  A    between atoms: _75  and  _76
REMARK   29  A    between atoms: _78  and  _80
REMARK   30  A    between atoms: _80  and  _81
REMARK   31  A    between atoms: _83  and  _85
REMARK   32  A    between atoms: _85  and  _86
REMARK   33  A    between atoms: _85  and  _88
REMARK   34  A    between atoms: _88  and  _89
REMARK   35  A    between atoms: _99  and  _101
REMARK   36  A    between atoms: _101  and  _102
REMARK   37  A    between atoms: _101  and  _104
REMARK   38  A    between atoms: _104  and  _105
REMARK   39  A    between atoms: _110  and  _111
REMARK   40  A    between atoms: _113  and  _115
REMARK   41  A    between atoms: _115  and  _116
REMARK   42  A    between atoms: _115  and  _118
REMARK   43  A    between atoms: _118  and  _119
REMARK   44  A    between atoms: _124  and  _125
REMARK   45  A    between atoms: _127  and  _129
REMARK   46  A    between atoms: _129  and  _130
REMARK   47  A    between atoms: _129  and  _132
REMARK   48  A    between atoms: _132  and  _133
REMARK   49  A    between atoms: _135  and  _137
REMARK   50  A    between atoms: _137  and  _138
REMARK   51  A    between atoms: _137  and  _140
REMARK   52  A    between atoms: _140  and  _141
REMARK   53  A    between atoms: _146  and  _148
REMARK   54  A    between atoms: _148  and  _149
REMARK   55  A    between atoms: _148  and  _151
REMARK   56  A    between atoms: _151  and  _152
REMARK   57  A    between atoms: _155  and  _157
REMARK   58  A    between atoms: _157  and  _158
REMARK   59  A    between atoms: _157  and  _160
REMARK   60  A    between atoms: _160  and  _161
REMARK   61  A    between atoms: _164  and  _166
REMARK   62  A    between atoms: _166  and  _167
REMARK   63  A    between atoms: _166  and  _169
REMARK   64  A    between atoms: _169  and  _170
REMARK   65  A    between atoms: _175  and  _177
REMARK   66  A    between atoms: _177  and  _178
REMARK   67  A    between atoms: _177  and  _180
REMARK   68  A    between atoms: _180  and  _181
REMARK   69  A    between atoms: _191  and  _193
REMARK   70  A    between atoms: _193  and  _194
REMARK   71  A    between atoms: _193  and  _196
REMARK   72  A    between atoms: _196  and  _197
REMARK   73  A    between atoms: _197  and  _198
REMARK   74  A    between atoms: _201  and  _203
REMARK   75  A    between atoms: _203  and  _204
REMARK   76  A    between atoms: _203  and  _206
REMARK   77  A    between atoms: _206  and  _207
REMARK   78  A    between atoms: _212  and  _213
REMARK   79  A    between atoms: _215  and  _217
REMARK   80  A    between atoms: _217  and  _218
REMARK   81  A    between atoms: _217  and  _220
REMARK   82  A    between atoms: _220  and  _221
REMARK   83  A    between atoms: _224  and  _226
REMARK   84  A    between atoms: _226  and  _227
REMARK   85  A    between atoms: _230  and  _232
REMARK   86  A    between atoms: _232  and  _233
REMARK   87  A    between atoms: _235  and  _237
REMARK   88  A    between atoms: _237  and  _238
REMARK   89  A    between atoms: _241  and  _243
REMARK   90  A    between atoms: _243  and  _244
REMARK   91  A    between atoms: _246  and  _248
REMARK   92  A    between atoms: _248  and  _249
REMARK   93  A    between atoms: _251  and  _253
REMARK   94  A    between atoms: _253  and  _254
REMARK   95  A    between atoms: _253  and  _256
REMARK   96  A    between atoms: _256  and  _257
REMARK   97  A    between atoms: _263  and  _265
REMARK   98  A    between atoms: _265  and  _266
REMARK   99  A    between atoms: _265  and  _268
REMARK  100  A    between atoms: _268  and  _269
REMARK  101  A    between atoms: _275  and  _277
REMARK  102  A    between atoms: _277  and  _278
REMARK  103  A    between atoms: _277  and  _280
REMARK  104  A    between atoms: _280  and  _281
REMARK  105  A    between atoms: _281  and  _282
REMARK  106  A    between atoms: _282  and  _283
REMARK  107  A    between atoms: _292  and  _294
REMARK  108  A    between atoms: _294  and  _295
REMARK  109  A    between atoms: _294  and  _297
REMARK  110  A    between atoms: _297  and  _298
REMARK  111  A    between atoms: _303  and  _305
REMARK  112  A    between atoms: _305  and  _306
REMARK  113  A    between atoms: _305  and  _308
REMARK  114  A    between atoms: _308  and  _309
REMARK  115  A    between atoms: _312  and  _314
REMARK  116  A    between atoms: _314  and  _315
REMARK  117  A    between atoms: _314  and  _317
REMARK  118  A    between atoms: _317  and  _318
REMARK  119  A    between atoms: _318  and  _319
REMARK  120  A    between atoms: _321  and  _323
REMARK  121  A    between atoms: _323  and  _324
REMARK  122  A    between atoms: _323  and  _326
REMARK  123  A    between atoms: _326  and  _327
REMARK  124  A    between atoms: _330  and  _332
REMARK  125  A    between atoms: _332  and  _333
REMARK  126  A    between atoms: _332  and  _335
REMARK  127  A    between atoms: _335  and  _336
REMARK  128  A    between atoms: _341  and  _342
REMARK  129  A    between atoms: _344  and  _346
REMARK  130  A    between atoms: _346  and  _347
REMARK  131  A    between atoms: _346  and  _349
REMARK  132  A    between atoms: _349  and  _350
REMARK  133  A    between atoms: _353  and  _355
REMARK  134  A    between atoms: _355  and  _356
REMARK  135  A    between atoms: _355  and  _358
REMARK  136  A    between atoms: _358  and  _359
REMARK  137  A    between atoms: _362  and  _364
REMARK  138  A    between atoms: _364  and  _365
REMARK  139  A    between atoms: _368  and  _370
REMARK  140  A    between atoms: _370  and  _371
REMARK  141  A    between atoms: _373  and  _375
REMARK  142  A    between atoms: _375  and  _376
REMARK  143  A    between atoms: _375  and  _378
REMARK  144  A    between atoms: _378  and  _379
REMARK  145  A    between atoms: _389  and  _391
REMARK  146  A    between atoms: _391  and  _392
REMARK  147  A    between atoms: _391  and  _394
REMARK  148  A    between atoms: _394  and  _395
REMARK  149  A    between atoms: _395  and  _396
REMARK  150  A    between atoms: _399  and  _401
REMARK  151  A    between atoms: _401  and  _402
REMARK  152  A    between atoms: _401  and  _404
REMARK  153  A    between atoms: _404  and  _405
REMARK  154  A    between atoms: _405  and  _406
REMARK  155  A    between atoms: _411  and  _413
REMARK  156  A    between atoms: _413  and  _414
REMARK  157  A    between atoms: _413  and  _416
REMARK  158  A    between atoms: _420  and  _421
REMARK  159  A    between atoms: _426  and  _428
REMARK  160  A    between atoms: _428  and  _429
REMARK  161  A    between atoms: _428  and  _431
REMARK  162  A    between atoms: _431  and  _432
REMARK  163  A    between atoms: _438  and  _440
REMARK  164  A    between atoms: _440  and  _441
REMARK  165  A    between atoms: _440  and  _443
REMARK  166  A    between atoms: _443  and  _444
REMARK  167  A    between atoms: _449  and  _450
REMARK  168  A    between atoms: _452  and  _454
REMARK  169  A    between atoms: _454  and  _455
REMARK  170  A    between atoms: _457  and  _459
REMARK  171  A    between atoms: _459  and  _460
REMARK  172  A    between atoms: _459  and  _462
REMARK  173  A    between atoms: _462  and  _463
REMARK  174  A    between atoms: _463  and  _464
REMARK  175  A    between atoms: _464  and  _465
REMARK  176  A    between atoms: _474  and  _476
REMARK  177  A    between atoms: _476  and  _477
REMARK  178  A    between atoms: _476  and  _479
REMARK  179  A    between atoms: _479  and  _480
REMARK  180  A    between atoms: _483  and  _485
REMARK  181  A    between atoms: _485  and  _486
REMARK  182  A    between atoms: _485  and  _488
REMARK  183  A    between atoms: _488  and  _489
REMARK  184  A    between atoms: _492  and  _494
REMARK  185  A    between atoms: _494  and  _495
REMARK  186  A    between atoms: _494  and  _497
REMARK  187  A    between atoms: _497  and  _498
REMARK  188  A    between atoms: _501  and  _503
REMARK  189  A    between atoms: _503  and  _504
REMARK  190  A    between atoms: _503  and  _506
REMARK  191  A    between atoms: _506  and  _507
REMARK  192  A    between atoms: _507  and  _508
REMARK  193  A    between atoms: _508  and  _509
REMARK  194  A    between atoms: _518  and  _520
REMARK  195  A    between atoms: _520  and  _521
REMARK  196  A    between atoms: _520  and  _523
REMARK  197  A    between atoms: _523  and  _524
REMARK  198  A    between atoms: _527  and  _529
REMARK  199  A    between atoms: _529  and  _530
REMARK  200  A    between atoms: _533  and  _535
REMARK  201  A    between atoms: _535  and  _536
REMARK  202  A    between atoms: _535  and  _538
REMARK  203  A    between atoms: _538  and  _539
REMARK  204  A    between atoms: _541  and  _543
REMARK  205  A    between atoms: _543  and  _544
REMARK  206  A    between atoms: _543  and  _546
REMARK  207  A    between atoms: _546  and  _547
REMARK  208  A    between atoms: _547  and  _548
REMARK  209  A    between atoms: _550  and  _552
REMARK  210  A    between atoms: _552  and  _553
REMARK  211  A    between atoms: _552  and  _555
REMARK  212  A    between atoms: _555  and  _556
REMARK  213  A    between atoms: _562  and  _564
REMARK  214  A    between atoms: _564  and  _565
REMARK  215  A    between atoms: _564  and  _567
REMARK  216  A    between atoms: _567  and  _568
REMARK  217  A    between atoms: _578  and  _580
REMARK  218  A    between atoms: _580  and  _581
REMARK  219  A    between atoms: _580  and  _583
REMARK  220  A    between atoms: _583  and  _584
REMARK  221  A    between atoms: _589  and  _591
REMARK  222  A    between atoms: _591  and  _592
REMARK  223  A    between atoms: _591  and  _594
REMARK  224  A    between atoms: _594  and  _595
REMARK  225  A    between atoms: _595  and  _596
REMARK                            x       y       z     vdW  Elec       q    Type
REMARK                         _______ _______ _______ _____ _____    ______ ____
ROOT
ATOM      1  O   HOH     1      12.745  36.033 106.293  0.00  0.00    +0.000 OA
ENDROOT
TORSDOF 0
REMARK  Name = ../refined-set-2016/1ur9/1ur9_pocket.pdb
REMARK  225 active torsions:
REMARK  status: ('A' for Active; 'I' for Inactive)
REMARK    1  A    between atoms: _1  and  _3
REMARK    2  A    between atoms: _3  and  _4
REMARK    3  A    between atoms: _3  and  _6
REMARK    4  A    between atoms: _6  and  _7
REMARK    5  A    between atoms: _12  and  _13
REMARK    6  A    between atoms: _15  and  _17
REMARK    7  A    between atoms: _17  and  _18
REMARK    8  A    between atoms: _17  and  _20
REMARK    9  A    between atoms: _20  and  _21
REMARK   10  A    between atoms: _28  and  _29
REMARK   11  A    between atoms: _34  and  _36
REMARK   12  A    between atoms: _36  and  _37
REMARK   13  A    between atoms: _36  and  _39
REMARK   14  A    between atoms: _39  and  _40
REMARK   15  A    between atoms: _45  and  _47
REMARK   16  A    between atoms: _47  and  _48
REMARK   17  A    between atoms: _47  and  _50
REMARK   18  A    between atoms: _50  and  _51
REMARK   19  A    between atoms: _53  and  _55
REMARK   20  A    between atoms: _55  and  _56
REMARK   21  A    between atoms: _55  and  _58
REMARK   22  A    between atoms: _58  and  _59
REMARK   23  A    between atoms: _65  and  _67
REMARK   24  A    between atoms: _67  and  _68
REMARK   25  A    between atoms: _67  and  _70
REMARK   26  A    between atoms: _70  and  _71
REMARK   27  A    between atoms: _73  and  _75
REMARK   28  A    between atoms: _75  and  _76
REMARK   29  A    between atoms: _78  and  _80
REMARK   30  A    between atoms: _80  and  _81
REMARK   31  A    between atoms: _83  and  _85
REMARK   32  A    between atoms: _85  and  _86
REMARK   33  A    between atoms: _85  and  _88
REMARK   34  A    between atoms: _88  and  _89
REMARK   35  A    between atoms: _99  and  _101
REMARK   36  A    between atoms: _101  and  _102
REMARK   37  A    between atoms: _101  and  _104
REMARK   38  A    between atoms: _104  and  _105
REMARK   39  A    between atoms: _110  and  _111
REMARK   40  A    between atoms: _113  and  _115
REMARK   41  A    between atoms: _115  and  _116
REMARK   42  A    between atoms: _115  and  _118
REMARK   43  A    between atoms: _118  and  _119
REMARK   44  A    between atoms: _124  and  _125
REMARK   45  A    between atoms: _127  and  _129
REMARK   46  A    between atoms: _129  and  _130
REMARK   47  A    between atoms: _129  and  _132
REMARK   48  A    between atoms: _132  and  _133
REMARK   49  A    between atoms: _135  and  _137
REMARK   50  A    between atoms: _137  and  _138
REMARK   51  A    between atoms: _137  and  _140
REMARK   52  A    between atoms: _140  and  _141
REMARK   53  A    between atoms: _146  and  _148
REMARK   54  A    between atoms: _148  and  _149
REMARK   55  A    between atoms: _148  and  _151
REMARK   56  A    between atoms: _151  and  _152
REMARK   57  A    between atoms: _155  and  _157
REMARK   58  A    between atoms: _157  and  _158
REMARK   59  A    between atoms: _157  and  _160
REMARK   60  A    between atoms: _160  and  _161
REMARK   61  A    between atoms: _164  and  _166
REMARK   62  A    between atoms: _166  and  _167
REMARK   63  A    between atoms: _166  and  _169
REMARK   64  A    between atoms: _169  and  _170
REMARK   65  A    between atoms: _175  and  _177
REMARK   66  A    between atoms: _177  and  _178
REMARK   67  A    between atoms: _177  and  _180
REMARK   68  A    between atoms: _180  and  _181
REMARK   69  A    between atoms: _191  and  _193
REMARK   70  A    between atoms: _193  and  _194
REMARK   71  A    between atoms: _193  and  _196
REMARK   72  A    between atoms: _196  and  _197
REMARK   73  A    between atoms: _197  and  _198
REMARK   74  A    between atoms: _201  and  _203
REMARK   75  A    between atoms: _203  and  _204
REMARK   76  A    between atoms: _203  and  _206
REMARK   77  A    between atoms: _206  and  _207
REMARK   78  A    between atoms: _212  and  _213
REMARK   79  A    between atoms: _215  and  _217
REMARK   80  A    between atoms: _217  and  _218
REMARK   81  A    between atoms: _217  and  _220
REMARK   82  A    between atoms: _220  and  _221
REMARK   83  A    between atoms: _224  and  _226
REMARK   84  A    between atoms: _226  and  _227
REMARK   85  A    between atoms: _230  and  _232
REMARK   86  A    between atoms: _232  and  _233
REMARK   87  A    between atoms: _235  and  _237
REMARK   88  A    between atoms: _237  and  _238
REMARK   89  A    between atoms: _241  and  _243
REMARK   90  A    between atoms: _243  and  _244
REMARK   91  A    between atoms: _246  and  _248
REMARK   92  A    between atoms: _248  and  _249
REMARK   93  A    between atoms: _251  and  _253
REMARK   94  A    between atoms: _253  and  _254
REMARK   95  A    between atoms: _253  and  _256
REMARK   96  A    between atoms: _256  and  _257
REMARK   97  A    between atoms: _263  and  _265
REMARK   98  A    between atoms: _265  and  _266
REMARK   99  A    between atoms: _265  and  _268
REMARK  100  A    between atoms: _268  and  _269
REMARK  101  A    between atoms: _275  and  _277
REMARK  102  A    between atoms: _277  and  _278
REMARK  103  A    between atoms: _277  and  _280
REMARK  104  A    between atoms: _280  and  _281
REMARK  105  A    between atoms: _281  and  _282
REMARK  106  A    between atoms: _282  and  _283
REMARK  107  A    between atoms: _292  and  _294
REMARK  108  A    between atoms: _294  and  _295
REMARK  109  A    between atoms: _294  and  _297
REMARK  110  A    between atoms: _297  and  _298
REMARK  111  A    between atoms: _303  and  _305
REMARK  112  A    between atoms: _305  and  _306
REMARK  113  A    between atoms: _305  and  _308
REMARK  114  A    between atoms: _308  and  _309
REMARK  115  A    between atoms: _312  and  _314
REMARK  116  A    between atoms: _314  and  _315
REMARK  117  A    between atoms: _314  and  _317
REMARK  118  A    between atoms: _317  and  _318
REMARK  119  A    between atoms: _318  and  _319
REMARK  120  A    between atoms: _321  and  _323
REMARK  121  A    between atoms: _323  and  _324
REMARK  122  A    between atoms: _323  and  _326
REMARK  123  A    between atoms: _326  and  _327
REMARK  124  A    between atoms: _330  and  _332
REMARK  125  A    between atoms: _332  and  _333
REMARK  126  A    between atoms: _332  and  _335
REMARK  127  A    between atoms: _335  and  _336
REMARK  128  A    between atoms: _341  and  _342
REMARK  129  A    between atoms: _344  and  _346
REMARK  130  A    between atoms: _346  and  _347
REMARK  131  A    between atoms: _346  and  _349
REMARK  132  A    between atoms: _349  and  _350
REMARK  133  A    between atoms: _353  and  _355
REMARK  134  A    between atoms: _355  and  _356
REMARK  135  A    between atoms: _355  and  _358
REMARK  136  A    between atoms: _358  and  _359
REMARK  137  A    between atoms: _362  and  _364
REMARK  138  A    between atoms: _364  and  _365
REMARK  139  A    between atoms: _368  and  _370
REMARK  140  A    between atoms: _370  and  _371
REMARK  141  A    between atoms: _373  and  _375
REMARK  142  A    between atoms: _375  and  _376
REMARK  143  A    between atoms: _375  and  _378
REMARK  144  A    between atoms: _378  and  _379
REMARK  145  A    between atoms: _389  and  _391
REMARK  146  A    between atoms: _391  and  _392
REMARK  147  A    between atoms: _391  and  _394
REMARK  148  A    between atoms: _394  and  _395
REMARK  149  A    between atoms: _395  and  _396
REMARK  150  A    between atoms: _399  and  _401
REMARK  151  A    between atoms: _401  and  _402
REMARK  152  A    between atoms: _401  and  _404
REMARK  153  A    between atoms: _404  and  _405
REMARK  154  A    between atoms: _405  and  _406
REMARK  155  A    between atoms: _411  and  _413
REMARK  156  A    between atoms: _413  and  _414
REMARK  157  A    between atoms: _413  and  _416
REMARK  158  A    between atoms: _420  and  _421
REMARK  159  A    between atoms: _426  and  _428
REMARK  160  A    between atoms: _428  and  _429
REMARK  161  A    between atoms: _428  and  _431
REMARK  162  A    between atoms: _431  and  _432
REMARK  163  A    between atoms: _438  and  _440
REMARK  164  A    between atoms: _440  and  _441
REMARK  165  A    between atoms: _440  and  _443
REMARK  166  A    between atoms: _443  and  _444
REMARK  167  A    between atoms: _449  and  _450
REMARK  168  A    between atoms: _452  and  _454
REMARK  169  A    between atoms: _454  and  _455
REMARK  170  A    between atoms: _457  and  _459
REMARK  171  A    between atoms: _459  and  _460
REMARK  172  A    between atoms: _459  and  _462
REMARK  173  A    between atoms: _462  and  _463
REMARK  174  A    between atoms: _463  and  _464
REMARK  175  A    between atoms: _464  and  _465
REMARK  176  A    between atoms: _474  and  _476
REMARK  177  A    between atoms: _476  and  _477
REMARK  178  A    between atoms: _476  and  _479
REMARK  179  A    between atoms: _479  and  _480
REMARK  180  A    between atoms: _483  and  _485
REMARK  181  A    between atoms: _485  and  _486
REMARK  182  A    between atoms: _485  and  _488
REMARK  183  A    between atoms: _488  and  _489
REMARK  184  A    between atoms: _492  and  _494
REMARK  185  A    between atoms: _494  and  _495
REMARK  186  A    between atoms: _494  and  _497
REMARK  187  A    between atoms: _497  and  _498
REMARK  188  A    between atoms: _501  and  _503
REMARK  189  A    between atoms: _503  and  _504
REMARK  190  A    between atoms: _503  and  _506
REMARK  191  A    between atoms: _506  and  _507
REMARK  192  A    between atoms: _507  and  _508
REMARK  193  A    between atoms: _508  and  _509
REMARK  194  A    between atoms: _518  and  _520
REMARK  195  A    between atoms: _520  and  _521
REMARK  196  A    between atoms: _520  and  _523
REMARK  197  A    between atoms: _523  and  _524
REMARK  198  A    between atoms: _527  and  _529
REMARK  199  A    between atoms: _529  and  _530
REMARK  200  A    between atoms: _533  and  _535
REMARK  201  A    between atoms: _535  and  _536
REMARK  202  A    between atoms: _535  and  _538
REMARK  203  A    between atoms: _538  and  _539
REMARK  204  A    between atoms: _541  and  _543
REMARK  205  A    between atoms: _543  and  _544
REMARK  206  A    between atoms: _543  and  _546
REMARK  207  A    between atoms: _546  and  _547
REMARK  208  A    between atoms: _547  and  _548
REMARK  209  A    between atoms: _550  and  _552
REMARK  210  A    between atoms: _552  and  _553
REMARK  211  A    between atoms: _552  and  _555
REMARK  212  A    between atoms: _555  and  _556
REMARK  213  A    between atoms: _562  and  _564
REMARK  214  A    between atoms: _564  and  _565
REMARK  215  A    between atoms: _564  and  _567
REMARK  216  A    between atoms: _567  and  _568
REMARK  217  A    between atoms: _578  and  _580
REMARK  218  A    between atoms: _580  and  _581
REMARK  219  A    between atoms: _580  and  _583
REMARK  220  A    between atoms: _583  and  _584
REMARK  221  A    between atoms: _589  and  _591
REMARK  222  A    between atoms: _591  and  _592
REMARK  223  A    between atoms: _591  and  _594
REMARK  224  A    between atoms: _594  and  _595
REMARK  225  A    between atoms: _595  and  _596
REMARK                            x       y       z     vdW  Elec       q    Type
REMARK                         _______ _______ _______ _____ _____    ______ ____
ROOT
ATOM      1  O   HOH     1      16.564  38.049 107.260  0.00  0.00    +0.000 OA
ENDROOT
TORSDOF 0
REMARK  Name = ../refined-set-2016/1ur9/1ur9_pocket.pdb
REMARK  225 active torsions:
REMARK  status: ('A' for Active; 'I' for Inactive)
REMARK    1  A    between atoms: _1  and  _3
REMARK    2  A    between atoms: _3  and  _4
REMARK    3  A    between atoms: _3  and  _6
REMARK    4  A    between atoms: _6  and  _7
REMARK    5  A    between atoms: _12  and  _13
REMARK    6  A    between atoms: _15  and  _17
REMARK    7  A    between atoms: _17  and  _18
REMARK    8  A    between atoms: _17  and  _20
REMARK    9  A    between atoms: _20  and  _21
REMARK   10  A    between atoms: _28  and  _29
REMARK   11  A    between atoms: _34  and  _36
REMARK   12  A    between atoms: _36  and  _37
REMARK   13  A    between atoms: _36  and  _39
REMARK   14  A    between atoms: _39  and  _40
REMARK   15  A    between atoms: _45  and  _47
REMARK   16  A    between atoms: _47  and  _48
REMARK   17  A    between atoms: _47  and  _50
REMARK   18  A    between atoms: _50  and  _51
REMARK   19  A    between atoms: _53  and  _55
REMARK   20  A    between atoms: _55  and  _56
REMARK   21  A    between atoms: _55  and  _58
REMARK   22  A    between atoms: _58  and  _59
REMARK   23  A    between atoms: _65  and  _67
REMARK   24  A    between atoms: _67  and  _68
REMARK   25  A    between atoms: _67  and  _70
REMARK   26  A    between atoms: _70  and  _71
REMARK   27  A    between atoms: _73  and  _75
REMARK   28  A    between atoms: _75  and  _76
REMARK   29  A    between atoms: _78  and  _80
REMARK   30  A    between atoms: _80  and  _81
REMARK   31  A    between atoms: _83  and  _85
REMARK   32  A    between atoms: _85  and  _86
REMARK   33  A    between atoms: _85  and  _88
REMARK   34  A    between atoms: _88  and  _89
REMARK   35  A    between atoms: _99  and  _101
REMARK   36  A    between atoms: _101  and  _102
REMARK   37  A    between atoms: _101  and  _104
REMARK   38  A    between atoms: _104  and  _105
REMARK   39  A    between atoms: _110  and  _111
REMARK   40  A    between atoms: _113  and  _115
REMARK   41  A    between atoms: _115  and  _116
REMARK   42  A    between atoms: _115  and  _118
REMARK   43  A    between atoms: _118  and  _119
REMARK   44  A    between atoms: _124  and  _125
REMARK   45  A    between atoms: _127  and  _129
REMARK   46  A    between atoms: _129  and  _130
REMARK   47  A    between atoms: _129  and  _132
REMARK   48  A    between atoms: _132  and  _133
REMARK   49  A    between atoms: _135  and  _137
REMARK   50  A    between atoms: _137  and  _138
REMARK   51  A    between atoms: _137  and  _140
REMARK   52  A    between atoms: _140  and  _141
REMARK   53  A    between atoms: _146  and  _148
REMARK   54  A    between atoms: _148  and  _149
REMARK   55  A    between atoms: _148  and  _151
REMARK   56  A    between atoms: _151  and  _152
REMARK   57  A    between atoms: _155  and  _157
REMARK   58  A    between atoms: _157  and  _158
REMARK   59  A    between atoms: _157  and  _160
REMARK   60  A    between atoms: _160  and  _161
REMARK   61  A    between atoms: _164  and  _166
REMARK   62  A    between atoms: _166  and  _167
REMARK   63  A    between atoms: _166  and  _169
REMARK   64  A    between atoms: _169  and  _170
REMARK   65  A    between atoms: _175  and  _177
REMARK   66  A    between atoms: _177  and  _178
REMARK   67  A    between atoms: _177  and  _180
REMARK   68  A    between atoms: _180  and  _181
REMARK   69  A    between atoms: _191  and  _193
REMARK   70  A    between atoms: _193  and  _194
REMARK   71  A    between atoms: _193  and  _196
REMARK   72  A    between atoms: _196  and  _197
REMARK   73  A    between atoms: _197  and  _198
REMARK   74  A    between atoms: _201  and  _203
REMARK   75  A    between atoms: _203  and  _204
REMARK   76  A    between atoms: _203  and  _206
REMARK   77  A    between atoms: _206  and  _207
REMARK   78  A    between atoms: _212  and  _213
REMARK   79  A    between atoms: _215  and  _217
REMARK   80  A    between atoms: _217  and  _218
REMARK   81  A    between atoms: _217  and  _220
REMARK   82  A    between atoms: _220  and  _221
REMARK   83  A    between atoms: _224  and  _226
REMARK   84  A    between atoms: _226  and  _227
REMARK   85  A    between atoms: _230  and  _232
REMARK   86  A    between atoms: _232  and  _233
REMARK   87  A    between atoms: _235  and  _237
REMARK   88  A    between atoms: _237  and  _238
REMARK   89  A    between atoms: _241  and  _243
REMARK   90  A    between atoms: _243  and  _244
REMARK   91  A    between atoms: _246  and  _248
REMARK   92  A    between atoms: _248  and  _249
REMARK   93  A    between atoms: _251  and  _253
REMARK   94  A    between atoms: _253  and  _254
REMARK   95  A    between atoms: _253  and  _256
REMARK   96  A    between atoms: _256  and  _257
REMARK   97  A    between atoms: _263  and  _265
REMARK   98  A    between atoms: _265  and  _266
REMARK   99  A    between atoms: _265  and  _268
REMARK  100  A    between atoms: _268  and  _269
REMARK  101  A    between atoms: _275  and  _277
REMARK  102  A    between atoms: _277  and  _278
REMARK  103  A    between atoms: _277  and  _280
REMARK  104  A    between atoms: _280  and  _281
REMARK  105  A    between atoms: _281  and  _282
REMARK  106  A    between atoms: _282  and  _283
REMARK  107  A    between atoms: _292  and  _294
REMARK  108  A    between atoms: _294  and  _295
REMARK  109  A    between atoms: _294  and  _297
REMARK  110  A    between atoms: _297  and  _298
REMARK  111  A    between atoms: _303  and  _305
REMARK  112  A    between atoms: _305  and  _306
REMARK  113  A    between atoms: _305  and  _308
REMARK  114  A    between atoms: _308  and  _309
REMARK  115  A    between atoms: _312  and  _314
REMARK  116  A    between atoms: _314  and  _315
REMARK  117  A    between atoms: _314  and  _317
REMARK  118  A    between atoms: _317  and  _318
REMARK  119  A    between atoms: _318  and  _319
REMARK  120  A    between atoms: _321  and  _323
REMARK  121  A    between atoms: _323  and  _324
REMARK  122  A    between atoms: _323  and  _326
REMARK  123  A    between atoms: _326  and  _327
REMARK  124  A    between atoms: _330  and  _332
REMARK  125  A    between atoms: _332  and  _333
REMARK  126  A    between atoms: _332  and  _335
REMARK  127  A    between atoms: _335  and  _336
REMARK  128  A    between atoms: _341  and  _342
REMARK  129  A    between atoms: _344  and  _346
REMARK  130  A    between atoms: _346  and  _347
REMARK  131  A    between atoms: _346  and  _349
REMARK  132  A    between atoms: _349  and  _350
REMARK  133  A    between atoms: _353  and  _355
REMARK  134  A    between atoms: _355  and  _356
REMARK  135  A    between atoms: _355  and  _358
REMARK  136  A    between atoms: _358  and  _359
REMARK  137  A    between atoms: _362  and  _364
REMARK  138  A    between atoms: _364  and  _365
REMARK  139  A    between atoms: _368  and  _370
REMARK  140  A    between atoms: _370  and  _371
REMARK  141  A    between atoms: _373  and  _375
REMARK  142  A    between atoms: _375  and  _376
REMARK  143  A    between atoms: _375  and  _378
REMARK  144  A    between atoms: _378  and  _379
REMARK  145  A    between atoms: _389  and  _391
REMARK  146  A    between atoms: _391  and  _392
REMARK  147  A    between atoms: _391  and  _394
REMARK  148  A    between atoms: _394  and  _395
REMARK  149  A    between atoms: _395  and  _396
REMARK  150  A    between atoms: _399  and  _401
REMARK  151  A    between atoms: _401  and  _402
REMARK  152  A    between atoms: _401  and  _404
REMARK  153  A    between atoms: _404  and  _405
REMARK  154  A    between atoms: _405  and  _406
REMARK  155  A    between atoms: _411  and  _413
REMARK  156  A    between atoms: _413  and  _414
REMARK  157  A    between atoms: _413  and  _416
REMARK  158  A    between atoms: _420  and  _421
REMARK  159  A    between atoms: _426  and  _428
REMARK  160  A    between atoms: _428  and  _429
REMARK  161  A    between atoms: _428  and  _431
REMARK  162  A    between atoms: _431  and  _432
REMARK  163  A    between atoms: _438  and  _440
REMARK  164  A    between atoms: _440  and  _441
REMARK  165  A    between atoms: _440  and  _443
REMARK  166  A    between atoms: _443  and  _444
REMARK  167  A    between atoms: _449  and  _450
REMARK  168  A    between atoms: _452  and  _454
REMARK  169  A    between atoms: _454  and  _455
REMARK  170  A    between atoms: _457  and  _459
REMARK  171  A    between atoms: _459  and  _460
REMARK  172  A    between atoms: _459  and  _462
REMARK  173  A    between atoms: _462  and  _463
REMARK  174  A    between atoms: _463  and  _464
REMARK  175  A    between atoms: _464  and  _465
REMARK  176  A    between atoms: _474  and  _476
REMARK  177  A    between atoms: _476  and  _477
REMARK  178  A    between atoms: _476  and  _479
REMARK  179  A    between atoms: _479  and  _480
REMARK  180  A    between atoms: _483  and  _485
REMARK  181  A    between atoms: _485  and  _486
REMARK  182  A    between atoms: _485  and  _488
REMARK  183  A    between atoms: _488  and  _489
REMARK  184  A    between atoms: _492  and  _494
REMARK  185  A    between atoms: _494  and  _495
REMARK  186  A    between atoms: _494  and  _497
REMARK  187  A    between atoms: _497  and  _498
REMARK  188  A    between atoms: _501  and  _503
REMARK  189  A    between atoms: _503  and  _504
REMARK  190  A    between atoms: _503  and  _506
REMARK  191  A    between atoms: _506  and  _507
REMARK  192  A    between atoms: _507  and  _508
REMARK  193  A    between atoms: _508  and  _509
REMARK  194  A    between atoms: _518  and  _520
REMARK  195  A    between atoms: _520  and  _521
REMARK  196  A    between atoms: _520  and  _523
REMARK  197  A    between atoms: _523  and  _524
REMARK  198  A    between atoms: _527  and  _529
REMARK  199  A    between atoms: _529  and  _530
REMARK  200  A    between atoms: _533  and  _535
REMARK  201  A    between atoms: _535  and  _536
REMARK  202  A    between atoms: _535  and  _538
REMARK  203  A    between atoms: _538  and  _539
REMARK  204  A    between atoms: _541  and  _543
REMARK  205  A    between atoms: _543  and  _544
REMARK  206  A    between atoms: _543  and  _546
REMARK  207  A    between atoms: _546  and  _547
REMARK  208  A    between atoms: _547  and  _548
REMARK  209  A    between atoms: _550  and  _552
REMARK  210  A    between atoms: _552  and  _553
REMARK  211  A    between atoms: _552  and  _555
REMARK  212  A    between atoms: _555  and  _556
REMARK  213  A    between atoms: _562  and  _564
REMARK  214  A    between atoms: _564  and  _565
REMARK  215  A    between atoms: _564  and  _567
REMARK  216  A    between atoms: _567  and  _568
REMARK  217  A    between atoms: _578  and  _580
REMARK  218  A    between atoms: _580  and  _581
REMARK  219  A    between atoms: _580  and  _583
REMARK  220  A    between atoms: _583  and  _584
REMARK  221  A    between atoms: _589  and  _591
REMARK  222  A    between atoms: _591  and  _592
REMARK  223  A    between atoms: _591  and  _594
REMARK  224  A    between atoms: _594  and  _595
REMARK  225  A    between atoms: _595  and  _596
REMARK                            x       y       z     vdW  Elec       q    Type
REMARK                         _______ _______ _______ _____ _____    ______ ____
ROOT
ATOM      1  O   HOH     1      22.503  42.944  87.017  0.00  0.00    +0.000 OA
ENDROOT
TORSDOF 0
REMARK  Name = ../refined-set-2016/1ur9/1ur9_pocket.pdb
REMARK  225 active torsions:
REMARK  status: ('A' for Active; 'I' for Inactive)
REMARK    1  A    between atoms: _1  and  _3
REMARK    2  A    between atoms: _3  and  _4
REMARK    3  A    between atoms: _3  and  _6
REMARK    4  A    between atoms: _6  and  _7
REMARK    5  A    between atoms: _12  and  _13
REMARK    6  A    between atoms: _15  and  _17
REMARK    7  A    between atoms: _17  and  _18
REMARK    8  A    between atoms: _17  and  _20
REMARK    9  A    between atoms: _20  and  _21
REMARK   10  A    between atoms: _28  and  _29
REMARK   11  A    between atoms: _34  and  _36
REMARK   12  A    between atoms: _36  and  _37
REMARK   13  A    between atoms: _36  and  _39
REMARK   14  A    between atoms: _39  and  _40
REMARK   15  A    between atoms: _45  and  _47
REMARK   16  A    between atoms: _47  and  _48
REMARK   17  A    between atoms: _47  and  _50
REMARK   18  A    between atoms: _50  and  _51
REMARK   19  A    between atoms: _53  and  _55
REMARK   20  A    between atoms: _55  and  _56
REMARK   21  A    between atoms: _55  and  _58
REMARK   22  A    between atoms: _58  and  _59
REMARK   23  A    between atoms: _65  and  _67
REMARK   24  A    between atoms: _67  and  _68
REMARK   25  A    between atoms: _67  and  _70
REMARK   26  A    between atoms: _70  and  _71
REMARK   27  A    between atoms: _73  and  _75
REMARK   28  A    between atoms: _75  and  _76
REMARK   29  A    between atoms: _78  and  _80
REMARK   30  A    between atoms: _80  and  _81
REMARK   31  A    between atoms: _83  and  _85
REMARK   32  A    between atoms: _85  and  _86
REMARK   33  A    between atoms: _85  and  _88
REMARK   34  A    between atoms: _88  and  _89
REMARK   35  A    between atoms: _99  and  _101
REMARK   36  A    between atoms: _101  and  _102
REMARK   37  A    between atoms: _101  and  _104
REMARK   38  A    between atoms: _104  and  _105
REMARK   39  A    between atoms: _110  and  _111
REMARK   40  A    between atoms: _113  and  _115
REMARK   41  A    between atoms: _115  and  _116
REMARK   42  A    between atoms: _115  and  _118
REMARK   43  A    between atoms: _118  and  _119
REMARK   44  A    between atoms: _124  and  _125
REMARK   45  A    between atoms: _127  and  _129
REMARK   46  A    between atoms: _129  and  _130
REMARK   47  A    between atoms: _129  and  _132
REMARK   48  A    between atoms: _132  and  _133
REMARK   49  A    between atoms: _135  and  _137
REMARK   50  A    between atoms: _137  and  _138
REMARK   51  A    between atoms: _137  and  _140
REMARK   52  A    between atoms: _140  and  _141
REMARK   53  A    between atoms: _146  and  _148
REMARK   54  A    between atoms: _148  and  _149
REMARK   55  A    between atoms: _148  and  _151
REMARK   56  A    between atoms: _151  and  _152
REMARK   57  A    between atoms: _155  and  _157
REMARK   58  A    between atoms: _157  and  _158
REMARK   59  A    between atoms: _157  and  _160
REMARK   60  A    between atoms: _160  and  _161
REMARK   61  A    between atoms: _164  and  _166
REMARK   62  A    between atoms: _166  and  _167
REMARK   63  A    between atoms: _166  and  _169
REMARK   64  A    between atoms: _169  and  _170
REMARK   65  A    between atoms: _175  and  _177
REMARK   66  A    between atoms: _177  and  _178
REMARK   67  A    between atoms: _177  and  _180
REMARK   68  A    between atoms: _180  and  _181
REMARK   69  A    between atoms: _191  and  _193
REMARK   70  A    between atoms: _193  and  _194
REMARK   71  A    between atoms: _193  and  _196
REMARK   72  A    between atoms: _196  and  _197
REMARK   73  A    between atoms: _197  and  _198
REMARK   74  A    between atoms: _201  and  _203
REMARK   75  A    between atoms: _203  and  _204
REMARK   76  A    between atoms: _203  and  _206
REMARK   77  A    between atoms: _206  and  _207
REMARK   78  A    between atoms: _212  and  _213
REMARK   79  A    between atoms: _215  and  _217
REMARK   80  A    between atoms: _217  and  _218
REMARK   81  A    between atoms: _217  and  _220
REMARK   82  A    between atoms: _220  and  _221
REMARK   83  A    between atoms: _224  and  _226
REMARK   84  A    between atoms: _226  and  _227
REMARK   85  A    between atoms: _230  and  _232
REMARK   86  A    between atoms: _232  and  _233
REMARK   87  A    between atoms: _235  and  _237
REMARK   88  A    between atoms: _237  and  _238
REMARK   89  A    between atoms: _241  and  _243
REMARK   90  A    between atoms: _243  and  _244
REMARK   91  A    between atoms: _246  and  _248
REMARK   92  A    between atoms: _248  and  _249
REMARK   93  A    between atoms: _251  and  _253
REMARK   94  A    between atoms: _253  and  _254
REMARK   95  A    between atoms: _253  and  _256
REMARK   96  A    between atoms: _256  and  _257
REMARK   97  A    between atoms: _263  and  _265
REMARK   98  A    between atoms: _265  and  _266
REMARK   99  A    between atoms: _265  and  _268
REMARK  100  A    between atoms: _268  and  _269
REMARK  101  A    between atoms: _275  and  _277
REMARK  102  A    between atoms: _277  and  _278
REMARK  103  A    between atoms: _277  and  _280
REMARK  104  A    between atoms: _280  and  _281
REMARK  105  A    between atoms: _281  and  _282
REMARK  106  A    between atoms: _282  and  _283
REMARK  107  A    between atoms: _292  and  _294
REMARK  108  A    between atoms: _294  and  _295
REMARK  109  A    between atoms: _294  and  _297
REMARK  110  A    between atoms: _297  and  _298
REMARK  111  A    between atoms: _303  and  _305
REMARK  112  A    between atoms: _305  and  _306
REMARK  113  A    between atoms: _305  and  _308
REMARK  114  A    between atoms: _308  and  _309
REMARK  115  A    between atoms: _312  and  _314
REMARK  116  A    between atoms: _314  and  _315
REMARK  117  A    between atoms: _314  and  _317
REMARK  118  A    between atoms: _317  and  _318
REMARK  119  A    between atoms: _318  and  _319
REMARK  120  A    between atoms: _321  and  _323
REMARK  121  A    between atoms: _323  and  _324
REMARK  122  A    between atoms: _323  and  _326
REMARK  123  A    between atoms: _326  and  _327
REMARK  124  A    between atoms: _330  and  _332
REMARK  125  A    between atoms: _332  and  _333
REMARK  126  A    between atoms: _332  and  _335
REMARK  127  A    between atoms: _335  and  _336
REMARK  128  A    between atoms: _341  and  _342
REMARK  129  A    between atoms: _344  and  _346
REMARK  130  A    between atoms: _346  and  _347
REMARK  131  A    between atoms: _346  and  _349
REMARK  132  A    between atoms: _349  and  _350
REMARK  133  A    between atoms: _353  and  _355
REMARK  134  A    between atoms: _355  and  _356
REMARK  135  A    between atoms: _355  and  _358
REMARK  136  A    between atoms: _358  and  _359
REMARK  137  A    between atoms: _362  and  _364
REMARK  138  A    between atoms: _364  and  _365
REMARK  139  A    between atoms: _368  and  _370
REMARK  140  A    between atoms: _370  and  _371
REMARK  141  A    between atoms: _373  and  _375
REMARK  142  A    between atoms: _375  and  _376
REMARK  143  A    between atoms: _375  and  _378
REMARK  144  A    between atoms: _378  and  _379
REMARK  145  A    between atoms: _389  and  _391
REMARK  146  A    between atoms: _391  and  _392
REMARK  147  A    between atoms: _391  and  _394
REMARK  148  A    between atoms: _394  and  _395
REMARK  149  A    between atoms: _395  and  _396
REMARK  150  A    between atoms: _399  and  _401
REMARK  151  A    between atoms: _401  and  _402
REMARK  152  A    between atoms: _401  and  _404
REMARK  153  A    between atoms: _404  and  _405
REMARK  154  A    between atoms: _405  and  _406
REMARK  155  A    between atoms: _411  and  _413
REMARK  156  A    between atoms: _413  and  _414
REMARK  157  A    between atoms: _413  and  _416
REMARK  158  A    between atoms: _420  and  _421
REMARK  159  A    between atoms: _426  and  _428
REMARK  160  A    between atoms: _428  and  _429
REMARK  161  A    between atoms: _428  and  _431
REMARK  162  A    between atoms: _431  and  _432
REMARK  163  A    between atoms: _438  and  _440
REMARK  164  A    between atoms: _440  and  _441
REMARK  165  A    between atoms: _440  and  _443
REMARK  166  A    between atoms: _443  and  _444
REMARK  167  A    between atoms: _449  and  _450
REMARK  168  A    between atoms: _452  and  _454
REMARK  169  A    between atoms: _454  and  _455
REMARK  170  A    between atoms: _457  and  _459
REMARK  171  A    between atoms: _459  and  _460
REMARK  172  A    between atoms: _459  and  _462
REMARK  173  A    between atoms: _462  and  _463
REMARK  174  A    between atoms: _463  and  _464
REMARK  175  A    between atoms: _464  and  _465
REMARK  176  A    between atoms: _474  and  _476
REMARK  177  A    between atoms: _476  and  _477
REMARK  178  A    between atoms: _476  and  _479
REMARK  179  A    between atoms: _479  and  _480
REMARK  180  A    between atoms: _483  and  _485
REMARK  181  A    between atoms: _485  and  _486
REMARK  182  A    between atoms: _485  and  _488
REMARK  183  A    between atoms: _488  and  _489
REMARK  184  A    between atoms: _492  and  _494
REMARK  185  A    between atoms: _494  and  _495
REMARK  186  A    between atoms: _494  and  _497
REMARK  187  A    between atoms: _497  and  _498
REMARK  188  A    between atoms: _501  and  _503
REMARK  189  A    between atoms: _503  and  _504
REMARK  190  A    between atoms: _503  and  _506
REMARK  191  A    between atoms: _506  and  _507
REMARK  192  A    between atoms: _507  and  _508
REMARK  193  A    between atoms: _508  and  _509
REMARK  194  A    between atoms: _518  and  _520
REMARK  195  A    between atoms: _520  and  _521
REMARK  196  A    between atoms: _520  and  _523
REMARK  197  A    between atoms: _523  and  _524
REMARK  198  A    between atoms: _527  and  _529
REMARK  199  A    between atoms: _529  and  _530
REMARK  200  A    between atoms: _533  and  _535
REMARK  201  A    between atoms: _535  and  _536
REMARK  202  A    between atoms: _535  and  _538
REMARK  203  A    between atoms: _538  and  _539
REMARK  204  A    between atoms: _541  and  _543
REMARK  205  A    between atoms: _543  and  _544
REMARK  206  A    between atoms: _543  and  _546
REMARK  207  A    between atoms: _546  and  _547
REMARK  208  A    between atoms: _547  and  _548
REMARK  209  A    between atoms: _550  and  _552
REMARK  210  A    between atoms: _552  and  _553
REMARK  211  A    between atoms: _552  and  _555
REMARK  212  A    between atoms: _555  and  _556
REMARK  213  A    between atoms: _562  and  _564
REMARK  214  A    between atoms: _564  and  _565
REMARK  215  A    between atoms: _564  and  _567
REMARK  216  A    between atoms: _567  and  _568
REMARK  217  A    between atoms: _578  and  _580
REMARK  218  A    between atoms: _580  and  _581
REMARK  219  A    between atoms: _580  and  _583
REMARK  220  A    between atoms: _583  and  _584
REMARK  221  A    between atoms: _589  and  _591
REMARK  222  A    between atoms: _591  and  _592
REMARK  223  A    between atoms: _591  and  _594
REMARK  224  A    between atoms: _594  and  _595
REMARK  225  A    between atoms: _595  and  _596
REMARK                            x       y       z     vdW  Elec       q    Type
REMARK                         _______ _______ _______ _____ _____    ______ ____
ROOT
ATOM      1  O   HOH     1      20.160  40.642  85.826  0.00  0.00    +0.000 OA
ENDROOT
TORSDOF 0
REMARK  Name = ../refined-set-2016/1ur9/1ur9_pocket.pdb
REMARK  225 active torsions:
REMARK  status: ('A' for Active; 'I' for Inactive)
REMARK    1  A    between atoms: _1  and  _3
REMARK    2  A    between atoms: _3  and  _4
REMARK    3  A    between atoms: _3  and  _6
REMARK    4  A    between atoms: _6  and  _7
REMARK    5  A    between atoms: _12  and  _13
REMARK    6  A    between atoms: _15  and  _17
REMARK    7  A    between atoms: _17  and  _18
REMARK    8  A    between atoms: _17  and  _20
REMARK    9  A    between atoms: _20  and  _21
REMARK   10  A    between atoms: _28  and  _29
REMARK   11  A    between atoms: _34  and  _36
REMARK   12  A    between atoms: _36  and  _37
REMARK   13  A    between atoms: _36  and  _39
REMARK   14  A    between atoms: _39  and  _40
REMARK   15  A    between atoms: _45  and  _47
REMARK   16  A    between atoms: _47  and  _48
REMARK   17  A    between atoms: _47  and  _50
REMARK   18  A    between atoms: _50  and  _51
REMARK   19  A    between atoms: _53  and  _55
REMARK   20  A    between atoms: _55  and  _56
REMARK   21  A    between atoms: _55  and  _58
REMARK   22  A    between atoms: _58  and  _59
REMARK   23  A    between atoms: _65  and  _67
REMARK   24  A    between atoms: _67  and  _68
REMARK   25  A    between atoms: _67  and  _70
REMARK   26  A    between atoms: _70  and  _71
REMARK   27  A    between atoms: _73  and  _75
REMARK   28  A    between atoms: _75  and  _76
REMARK   29  A    between atoms: _78  and  _80
REMARK   30  A    between atoms: _80  and  _81
REMARK   31  A    between atoms: _83  and  _85
REMARK   32  A    between atoms: _85  and  _86
REMARK   33  A    between atoms: _85  and  _88
REMARK   34  A    between atoms: _88  and  _89
REMARK   35  A    between atoms: _99  and  _101
REMARK   36  A    between atoms: _101  and  _102
REMARK   37  A    between atoms: _101  and  _104
REMARK   38  A    between atoms: _104  and  _105
REMARK   39  A    between atoms: _110  and  _111
REMARK   40  A    between atoms: _113  and  _115
REMARK   41  A    between atoms: _115  and  _116
REMARK   42  A    between atoms: _115  and  _118
REMARK   43  A    between atoms: _118  and  _119
REMARK   44  A    between atoms: _124  and  _125
REMARK   45  A    between atoms: _127  and  _129
REMARK   46  A    between atoms: _129  and  _130
REMARK   47  A    between atoms: _129  and  _132
REMARK   48  A    between atoms: _132  and  _133
REMARK   49  A    between atoms: _135  and  _137
REMARK   50  A    between atoms: _137  and  _138
REMARK   51  A    between atoms: _137  and  _140
REMARK   52  A    between atoms: _140  and  _141
REMARK   53  A    between atoms: _146  and  _148
REMARK   54  A    between atoms: _148  and  _149
REMARK   55  A    between atoms: _148  and  _151
REMARK   56  A    between atoms: _151  and  _152
REMARK   57  A    between atoms: _155  and  _157
REMARK   58  A    between atoms: _157  and  _158
REMARK   59  A    between atoms: _157  and  _160
REMARK   60  A    between atoms: _160  and  _161
REMARK   61  A    between atoms: _164  and  _166
REMARK   62  A    between atoms: _166  and  _167
REMARK   63  A    between atoms: _166  and  _169
REMARK   64  A    between atoms: _169  and  _170
REMARK   65  A    between atoms: _175  and  _177
REMARK   66  A    between atoms: _177  and  _178
REMARK   67  A    between atoms: _177  and  _180
REMARK   68  A    between atoms: _180  and  _181
REMARK   69  A    between atoms: _191  and  _193
REMARK   70  A    between atoms: _193  and  _194
REMARK   71  A    between atoms: _193  and  _196
REMARK   72  A    between atoms: _196  and  _197
REMARK   73  A    between atoms: _197  and  _198
REMARK   74  A    between atoms: _201  and  _203
REMARK   75  A    between atoms: _203  and  _204
REMARK   76  A    between atoms: _203  and  _206
REMARK   77  A    between atoms: _206  and  _207
REMARK   78  A    between atoms: _212  and  _213
REMARK   79  A    between atoms: _215  and  _217
REMARK   80  A    between atoms: _217  and  _218
REMARK   81  A    between atoms: _217  and  _220
REMARK   82  A    between atoms: _220  and  _221
REMARK   83  A    between atoms: _224  and  _226
REMARK   84  A    between atoms: _226  and  _227
REMARK   85  A    between atoms: _230  and  _232
REMARK   86  A    between atoms: _232  and  _233
REMARK   87  A    between atoms: _235  and  _237
REMARK   88  A    between atoms: _237  and  _238
REMARK   89  A    between atoms: _241  and  _243
REMARK   90  A    between atoms: _243  and  _244
REMARK   91  A    between atoms: _246  and  _248
REMARK   92  A    between atoms: _248  and  _249
REMARK   93  A    between atoms: _251  and  _253
REMARK   94  A    between atoms: _253  and  _254
REMARK   95  A    between atoms: _253  and  _256
REMARK   96  A    between atoms: _256  and  _257
REMARK   97  A    between atoms: _263  and  _265
REMARK   98  A    between atoms: _265  and  _266
REMARK   99  A    between atoms: _265  and  _268
REMARK  100  A    between atoms: _268  and  _269
REMARK  101  A    between atoms: _275  and  _277
REMARK  102  A    between atoms: _277  and  _278
REMARK  103  A    between atoms: _277  and  _280
REMARK  104  A    between atoms: _280  and  _281
REMARK  105  A    between atoms: _281  and  _282
REMARK  106  A    between atoms: _282  and  _283
REMARK  107  A    between atoms: _292  and  _294
REMARK  108  A    between atoms: _294  and  _295
REMARK  109  A    between atoms: _294  and  _297
REMARK  110  A    between atoms: _297  and  _298
REMARK  111  A    between atoms: _303  and  _305
REMARK  112  A    between atoms: _305  and  _306
REMARK  113  A    between atoms: _305  and  _308
REMARK  114  A    between atoms: _308  and  _309
REMARK  115  A    between atoms: _312  and  _314
REMARK  116  A    between atoms: _314  and  _315
REMARK  117  A    between atoms: _314  and  _317
REMARK  118  A    between atoms: _317  and  _318
REMARK  119  A    between atoms: _318  and  _319
REMARK  120  A    between atoms: _321  and  _323
REMARK  121  A    between atoms: _323  and  _324
REMARK  122  A    between atoms: _323  and  _326
REMARK  123  A    between atoms: _326  and  _327
REMARK  124  A    between atoms: _330  and  _332
REMARK  125  A    between atoms: _332  and  _333
REMARK  126  A    between atoms: _332  and  _335
REMARK  127  A    between atoms: _335  and  _336
REMARK  128  A    between atoms: _341  and  _342
REMARK  129  A    between atoms: _344  and  _346
REMARK  130  A    between atoms: _346  and  _347
REMARK  131  A    between atoms: _346  and  _349
REMARK  132  A    between atoms: _349  and  _350
REMARK  133  A    between atoms: _353  and  _355
REMARK  134  A    between atoms: _355  and  _356
REMARK  135  A    between atoms: _355  and  _358
REMARK  136  A    between atoms: _358  and  _359
REMARK  137  A    between atoms: _362  and  _364
REMARK  138  A    between atoms: _364  and  _365
REMARK  139  A    between atoms: _368  and  _370
REMARK  140  A    between atoms: _370  and  _371
REMARK  141  A    between atoms: _373  and  _375
REMARK  142  A    between atoms: _375  and  _376
REMARK  143  A    between atoms: _375  and  _378
REMARK  144  A    between atoms: _378  and  _379
REMARK  145  A    between atoms: _389  and  _391
REMARK  146  A    between atoms: _391  and  _392
REMARK  147  A    between atoms: _391  and  _394
REMARK  148  A    between atoms: _394  and  _395
REMARK  149  A    between atoms: _395  and  _396
REMARK  150  A    between atoms: _399  and  _401
REMARK  151  A    between atoms: _401  and  _402
REMARK  152  A    between atoms: _401  and  _404
REMARK  153  A    between atoms: _404  and  _405
REMARK  154  A    between atoms: _405  and  _406
REMARK  155  A    between atoms: _411  and  _413
REMARK  156  A    between atoms: _413  and  _414
REMARK  157  A    between atoms: _413  and  _416
REMARK  158  A    between atoms: _420  and  _421
REMARK  159  A    between atoms: _426  and  _428
REMARK  160  A    between atoms: _428  and  _429
REMARK  161  A    between atoms: _428  and  _431
REMARK  162  A    between atoms: _431  and  _432
REMARK  163  A    between atoms: _438  and  _440
REMARK  164  A    between atoms: _440  and  _441
REMARK  165  A    between atoms: _440  and  _443
REMARK  166  A    between atoms: _443  and  _444
REMARK  167  A    between atoms: _449  and  _450
REMARK  168  A    between atoms: _452  and  _454
REMARK  169  A    between atoms: _454  and  _455
REMARK  170  A    between atoms: _457  and  _459
REMARK  171  A    between atoms: _459  and  _460
REMARK  172  A    between atoms: _459  and  _462
REMARK  173  A    between atoms: _462  and  _463
REMARK  174  A    between atoms: _463  and  _464
REMARK  175  A    between atoms: _464  and  _465
REMARK  176  A    between atoms: _474  and  _476
REMARK  177  A    between atoms: _476  and  _477
REMARK  178  A    between atoms: _476  and  _479
REMARK  179  A    between atoms: _479  and  _480
REMARK  180  A    between atoms: _483  and  _485
REMARK  181  A    between atoms: _485  and  _486
REMARK  182  A    between atoms: _485  and  _488
REMARK  183  A    between atoms: _488  and  _489
REMARK  184  A    between atoms: _492  and  _494
REMARK  185  A    between atoms: _494  and  _495
REMARK  186  A    between atoms: _494  and  _497
REMARK  187  A    between atoms: _497  and  _498
REMARK  188  A    between atoms: _501  and  _503
REMARK  189  A    between atoms: _503  and  _504
REMARK  190  A    between atoms: _503  and  _506
REMARK  191  A    between atoms: _506  and  _507
REMARK  192  A    between atoms: _507  and  _508
REMARK  193  A    between atoms: _508  and  _509
REMARK  194  A    between atoms: _518  and  _520
REMARK  195  A    between atoms: _520  and  _521
REMARK  196  A    between atoms: _520  and  _523
REMARK  197  A    between atoms: _523  and  _524
REMARK  198  A    between atoms: _527  and  _529
REMARK  199  A    between atoms: _529  and  _530
REMARK  200  A    between atoms: _533  and  _535
REMARK  201  A    between atoms: _535  and  _536
REMARK  202  A    between atoms: _535  and  _538
REMARK  203  A    between atoms: _538  and  _539
REMARK  204  A    between atoms: _541  and  _543
REMARK  205  A    between atoms: _543  and  _544
REMARK  206  A    between atoms: _543  and  _546
REMARK  207  A    between atoms: _546  and  _547
REMARK  208  A    between atoms: _547  and  _548
REMARK  209  A    between atoms: _550  and  _552
REMARK  210  A    between atoms: _552  and  _553
REMARK  211  A    between atoms: _552  and  _555
REMARK  212  A    between atoms: _555  and  _556
REMARK  213  A    between atoms: _562  and  _564
REMARK  214  A    between atoms: _564  and  _565
REMARK  215  A    between atoms: _564  and  _567
REMARK  216  A    between atoms: _567  and  _568
REMARK  217  A    between atoms: _578  and  _580
REMARK  218  A    between atoms: _580  and  _581
REMARK  219  A    between atoms: _580  and  _583
REMARK  220  A    between atoms: _583  and  _584
REMARK  221  A    between atoms: _589  and  _591
REMARK  222  A    between atoms: _591  and  _592
REMARK  223  A    between atoms: _591  and  _594
REMARK  224  A    between atoms: _594  and  _595
REMARK  225  A    between atoms: _595  and  _596
REMARK                            x       y       z     vdW  Elec       q    Type
REMARK                         _______ _______ _______ _____ _____    ______ ____
ROOT
ATOM      1  O   HOH     1      16.498  42.437  89.865  0.00  0.00    +0.000 OA
ENDROOT
TORSDOF 0
