REMARK  Name = ../refined-set-2016/4r74/4r74_pocket.pdb
REMARK  223 active torsions:
REMARK  status: ('A' for Active; 'I' for Inactive)
REMARK    1  A    between atoms: _1  and  _3
REMARK    2  A    between atoms: _3  and  _4
REMARK    3  A    between atoms: _3  and  _6
REMARK    4  A    between atoms: _6  and  _7
REMARK    5  A    between atoms: _9  and  _11
REMARK    6  A    between atoms: _11  and  _12
REMARK    7  A    between atoms: _15  and  _17
REMARK    8  A    between atoms: _17  and  _18
REMARK    9  A    between atoms: _17  and  _20
REMARK   10  A    between atoms: _20  and  _21
REMARK   11  A    between atoms: _24  and  _26
REMARK   12  A    between atoms: _26  and  _27
REMARK   13  A    between atoms: _26  and  _29
REMARK   14  A    between atoms: _29  and  _30
REMARK   15  A    between atoms: _35  and  _37
REMARK   16  A    between atoms: _37  and  _38
REMARK   17  A    between atoms: _37  and  _40
REMARK   18  A    between atoms: _40  and  _41
REMARK   19  A    between atoms: _41  and  _42
REMARK   20  A    between atoms: _44  and  _46
REMARK   21  A    between atoms: _46  and  _47
REMARK   22  A    between atoms: _46  and  _49
REMARK   23  A    between atoms: _49  and  _50
REMARK   24  A    between atoms: _50  and  _51
REMARK   25  A    between atoms: _51  and  _52
REMARK   26  A    between atoms: _61  and  _63
REMARK   27  A    between atoms: _63  and  _64
REMARK   28  A    between atoms: _63  and  _66
REMARK   29  A    between atoms: _66  and  _67
REMARK   30  A    between atoms: _72  and  _74
REMARK   31  A    between atoms: _74  and  _75
REMARK   32  A    between atoms: _77  and  _79
REMARK   33  A    between atoms: _79  and  _80
REMARK   34  A    between atoms: _79  and  _82
REMARK   35  A    between atoms: _82  and  _83
REMARK   36  A    between atoms: _85  and  _87
REMARK   37  A    between atoms: _87  and  _88
REMARK   38  A    between atoms: _90  and  _92
REMARK   39  A    between atoms: _92  and  _93
REMARK   40  A    between atoms: _92  and  _95
REMARK   41  A    between atoms: _95  and  _96
REMARK   42  A    between atoms: _98  and  _100
REMARK   43  A    between atoms: _100  and  _101
REMARK   44  A    between atoms: _100  and  _103
REMARK   45  A    between atoms: _103  and  _104
REMARK   46  A    between atoms: _107  and  _109
REMARK   47  A    between atoms: _109  and  _110
REMARK   48  A    between atoms: _109  and  _112
REMARK   49  A    between atoms: _112  and  _113
REMARK   50  A    between atoms: _119  and  _121
REMARK   51  A    between atoms: _121  and  _122
REMARK   52  A    between atoms: _121  and  _124
REMARK   53  A    between atoms: _124  and  _125
REMARK   54  A    between atoms: _135  and  _137
REMARK   55  A    between atoms: _137  and  _138
REMARK   56  A    between atoms: _137  and  _140
REMARK   57  A    between atoms: _140  and  _141
REMARK   58  A    between atoms: _146  and  _147
REMARK   59  A    between atoms: _149  and  _151
REMARK   60  A    between atoms: _151  and  _152
REMARK   61  A    between atoms: _154  and  _156
REMARK   62  A    between atoms: _156  and  _157
REMARK   63  A    between atoms: _159  and  _161
REMARK   64  A    between atoms: _161  and  _162
REMARK   65  A    between atoms: _161  and  _164
REMARK   66  A    between atoms: _164  and  _165
REMARK   67  A    between atoms: _168  and  _170
REMARK   68  A    between atoms: _170  and  _171
REMARK   69  A    between atoms: _170  and  _173
REMARK   70  A    between atoms: _173  and  _174
REMARK   71  A    between atoms: _178  and  _179
REMARK   72  A    between atoms: _184  and  _186
REMARK   73  A    between atoms: _186  and  _187
REMARK   74  A    between atoms: _186  and  _189
REMARK   75  A    between atoms: _189  and  _190
REMARK   76  A    between atoms: _190  and  _191
REMARK   77  A    between atoms: _196  and  _198
REMARK   78  A    between atoms: _198  and  _199
REMARK   79  A    between atoms: _198  and  _201
REMARK   80  A    between atoms: _204  and  _206
REMARK   81  A    between atoms: _206  and  _207
REMARK   82  A    between atoms: _206  and  _209
REMARK   83  A    between atoms: _209  and  _210
REMARK   84  A    between atoms: _215  and  _216
REMARK   85  A    between atoms: _218  and  _220
REMARK   86  A    between atoms: _220  and  _221
REMARK   87  A    between atoms: _220  and  _223
REMARK   88  A    between atoms: _223  and  _224
REMARK   89  A    between atoms: _227  and  _229
REMARK   90  A    between atoms: _229  and  _230
REMARK   91  A    between atoms: _232  and  _234
REMARK   92  A    between atoms: _234  and  _235
REMARK   93  A    between atoms: _234  and  _237
REMARK   94  A    between atoms: _237  and  _238
REMARK   95  A    between atoms: _241  and  _243
REMARK   96  A    between atoms: _243  and  _244
REMARK   97  A    between atoms: _247  and  _249
REMARK   98  A    between atoms: _249  and  _250
REMARK   99  A    between atoms: _249  and  _252
REMARK  100  A    between atoms: _252  and  _253
REMARK  101  A    between atoms: _257  and  _258
REMARK  102  A    between atoms: _263  and  _265
REMARK  103  A    between atoms: _265  and  _266
REMARK  104  A    between atoms: _265  and  _268
REMARK  105  A    between atoms: _268  and  _269
REMARK  106  A    between atoms: _271  and  _273
REMARK  107  A    between atoms: _273  and  _274
REMARK  108  A    between atoms: _273  and  _276
REMARK  109  A    between atoms: _276  and  _277
REMARK  110  A    between atoms: _279  and  _281
REMARK  111  A    between atoms: _281  and  _282
REMARK  112  A    between atoms: _284  and  _286
REMARK  113  A    between atoms: _286  and  _287
REMARK  114  A    between atoms: _286  and  _289
REMARK  115  A    between atoms: _289  and  _290
REMARK  116  A    between atoms: _293  and  _295
REMARK  117  A    between atoms: _295  and  _296
REMARK  118  A    between atoms: _299  and  _301
REMARK  119  A    between atoms: _301  and  _302
REMARK  120  A    between atoms: _301  and  _304
REMARK  121  A    between atoms: _304  and  _305
REMARK  122  A    between atoms: _310  and  _311
REMARK  123  A    between atoms: _313  and  _315
REMARK  124  A    between atoms: _315  and  _316
REMARK  125  A    between atoms: _315  and  _318
REMARK  126  A    between atoms: _318  and  _319
REMARK  127  A    between atoms: _322  and  _324
REMARK  128  A    between atoms: _324  and  _325
REMARK  129  A    between atoms: _328  and  _330
REMARK  130  A    between atoms: _330  and  _331
REMARK  131  A    between atoms: _330  and  _333
REMARK  132  A    between atoms: _333  and  _334
REMARK  133  A    between atoms: _337  and  _339
REMARK  134  A    between atoms: _339  and  _340
REMARK  135  A    between atoms: _339  and  _342
REMARK  136  A    between atoms: _342  and  _343
REMARK  137  A    between atoms: _343  and  _344
REMARK  138  A    between atoms: _344  and  _345
REMARK  139  A    between atoms: _345  and  _346
REMARK  140  A    between atoms: _350  and  _352
REMARK  141  A    between atoms: _352  and  _353
REMARK  142  A    between atoms: _352  and  _355
REMARK  143  A    between atoms: _355  and  _356
REMARK  144  A    between atoms: _358  and  _360
REMARK  145  A    between atoms: _360  and  _361
REMARK  146  A    between atoms: _363  and  _365
REMARK  147  A    between atoms: _365  and  _366
REMARK  148  A    between atoms: _365  and  _368
REMARK  149  A    between atoms: _368  and  _369
REMARK  150  A    between atoms: _372  and  _374
REMARK  151  A    between atoms: _374  and  _375
REMARK  152  A    between atoms: _374  and  _377
REMARK  153  A    between atoms: _377  and  _378
REMARK  154  A    between atoms: _381  and  _383
REMARK  155  A    between atoms: _383  and  _384
REMARK  156  A    between atoms: _387  and  _389
REMARK  157  A    between atoms: _389  and  _390
REMARK  158  A    between atoms: _389  and  _392
REMARK  159  A    between atoms: _392  and  _393
REMARK  160  A    between atoms: _393  and  _394
REMARK  161  A    between atoms: _394  and  _395
REMARK  162  A    between atoms: _404  and  _406
REMARK  163  A    between atoms: _406  and  _407
REMARK  164  A    between atoms: _409  and  _411
REMARK  165  A    between atoms: _411  and  _412
REMARK  166  A    between atoms: _411  and  _414
REMARK  167  A    between atoms: _414  and  _415
REMARK  168  A    between atoms: _421  and  _423
REMARK  169  A    between atoms: _423  and  _424
REMARK  170  A    between atoms: _423  and  _426
REMARK  171  A    between atoms: _426  and  _427
REMARK  172  A    between atoms: _430  and  _432
REMARK  173  A    between atoms: _432  and  _433
REMARK  174  A    between atoms: _432  and  _435
REMARK  175  A    between atoms: _435  and  _436
REMARK  176  A    between atoms: _441  and  _443
REMARK  177  A    between atoms: _443  and  _444
REMARK  178  A    between atoms: _443  and  _446
REMARK  179  A    between atoms: _446  and  _447
REMARK  180  A    between atoms: _450  and  _452
REMARK  181  A    between atoms: _452  and  _453
REMARK  182  A    between atoms: _452  and  _455
REMARK  183  A    between atoms: _455  and  _456
REMARK  184  A    between atoms: _461  and  _462
REMARK  185  A    between atoms: _464  and  _466
REMARK  186  A    between atoms: _466  and  _467
REMARK  187  A    between atoms: _466  and  _469
REMARK  188  A    between atoms: _469  and  _470
REMARK  189  A    between atoms: _470  and  _471
REMARK  190  A    between atoms: _474  and  _476
REMARK  191  A    between atoms: _476  and  _477
REMARK  192  A    between atoms: _476  and  _479
REMARK  193  A    between atoms: _479  and  _480
REMARK  194  A    between atoms: _483  and  _485
REMARK  195  A    between atoms: _485  and  _486
REMARK  196  A    between atoms: _488  and  _490
REMARK  197  A    between atoms: _490  and  _491
REMARK  198  A    between atoms: _493  and  _495
REMARK  199  A    between atoms: _495  and  _496
REMARK  200  A    between atoms: _495  and  _498
REMARK  201  A    between atoms: _498  and  _499
REMARK  202  A    between atoms: _499  and  _500
REMARK  203  A    between atoms: _505  and  _507
REMARK  204  A    between atoms: _507  and  _508
REMARK  205  A    between atoms: _511  and  _513
REMARK  206  A    between atoms: _513  and  _514
REMARK  207  A    between atoms: _513  and  _516
REMARK  208  A    between atoms: _516  and  _517
REMARK  209  A    between atoms: _520  and  _522
REMARK  210  A    between atoms: _522  and  _523
REMARK  211  A    between atoms: _522  and  _525
REMARK  212  A    between atoms: _525  and  _526
REMARK  213  A    between atoms: _526  and  _527
REMARK  214  A    between atoms: _532  and  _534
REMARK  215  A    between atoms: _534  and  _535
REMARK  216  A    between atoms: _534  and  _537
REMARK  217  A    between atoms: _537  and  _538
REMARK  218  A    between atoms: _541  and  _543
REMARK  219  A    between atoms: _543  and  _544
REMARK  220  A    between atoms: _543  and  _546
REMARK  221  A    between atoms: _546  and  _547
REMARK  222  A    between atoms: _547  and  _548
REMARK  223  A    between atoms: _548  and  _549
REMARK                            x       y       z     vdW  Elec       q    Type
REMARK                         _______ _______ _______ _____ _____    ______ ____
ROOT
ATOM      1  CA  THR A   3     -11.982  23.434 -14.381  0.00  0.00    +0.176 C 
ENDROOT
BRANCH   1   3
ATOM      2  C   ALA A   2      -9.763  24.305 -14.019  0.00  0.00    +0.241 C 
ATOM      3  N   THR A   3     -11.045  24.300 -13.669  0.00  0.00    -0.295 N 
ATOM      4  H   THR A   3     -11.379  24.908 -12.894  0.00  0.00    +0.150 HD
ATOM      5  O   ALA A   2      -9.328  23.563 -14.894  0.00  0.00    -0.273 OA
BRANCH   2   6
ATOM      6  CA  ALA A   2      -8.819  25.269 -13.295  0.00  0.00    +0.149 C 
ATOM      7  CB  ALA A   2      -9.437  26.657 -13.164  0.00  0.00    +0.031 C 
BRANCH   6  10
ATOM      8  C   SER A   1      -6.573  24.467 -13.778  0.00  0.00    +0.241 C 
ATOM      9  O   SER A   1      -6.599  23.706 -12.814  0.00  0.00    -0.274 OA
ATOM     10  N   ALA A   2      -7.559  25.325 -14.035  0.00  0.00    -0.297 N 
ATOM     11  H   ALA A   2      -7.431  26.046 -14.773  0.00  0.00    +0.150 HD
BRANCH   8  12
ATOM     12  CA  SER A   1      -5.378  24.457 -14.730  0.00  0.00    +0.174 C 
BRANCH  12  13
ATOM     13  N   SER A   1      -5.382  25.586 -15.653  0.00  0.00    -0.236 NA
ATOM     14  H   SER A   1      -5.363  26.556 -15.280  0.00  0.00    +0.142 HD
ENDBRANCH  12  13
BRANCH  12  15
ATOM     15  CB  SER A   1      -4.072  24.416 -13.927  0.00  0.00    +0.163 C 
BRANCH  15  16
ATOM     16  OG  SER A   1      -2.950  24.233 -14.778  0.00  0.00    -0.380 OA
ATOM     17  H   SER A   1      -3.046  23.379 -15.269  0.00  0.00    +0.211 HD
ENDBRANCH  15  16
ENDBRANCH  12  15
ENDBRANCH   8  12
ENDBRANCH   6  10
ENDBRANCH   2   6
ENDBRANCH   1   3
BRANCH   1  18
ATOM     18  C   THR A   3     -12.270  23.971 -15.778  0.00  0.00    +0.243 C 
ATOM     19  O   THR A   3     -12.160  25.171 -16.028  0.00  0.00    -0.273 OA
ATOM     20  N   ASN A   4     -12.625  23.076 -16.692  0.00  0.00    -0.298 N 
ATOM     21  H   ASN A   4     -12.642  22.068 -16.436  0.00  0.00    +0.150 HD
BRANCH  20  22
ATOM     22  CA  ASN A   4     -12.993  23.475 -18.051  0.00  0.00    +0.146 C 
BRANCH  22  23
ATOM     23  C   ASN A   4     -14.014  24.619 -18.086  0.00  0.00    +0.227 C 
ATOM     24  O   ASN A   4     -13.880  25.581 -18.851  0.00  0.00    -0.286 OA
ENDBRANCH  22  23
BRANCH  22  25
ATOM     25  CB  ASN A   4     -13.555  22.274 -18.809  0.00  0.00    +0.112 C 
BRANCH  25  26
ATOM     26  CG  ASN A   4     -12.549  21.661 -19.753  0.00  0.00    +0.222 C 
ATOM     27  ND2 ASN A   4     -12.391  20.341 -19.672  0.00  0.00    -0.329 N 
ATOM     28 HD21 ASN A   4     -12.949  19.792 -18.988  0.00  0.00    +0.145 HD
ATOM     29 HD22 ASN A   4     -11.710  19.860 -20.293  0.00  0.00    +0.145 HD
ATOM     30  OD1 ASN A   4     -11.914  22.362 -20.546  0.00  0.00    -0.275 OA
ENDBRANCH  25  26
ENDBRANCH  22  25
ENDBRANCH  20  22
ENDBRANCH   1  18
BRANCH   1  31
ATOM     31  CB  THR A   3     -13.310  23.277 -13.636  0.00  0.00    +0.137 C 
ATOM     32  CG2 THR A   3     -13.088  22.585 -12.300  0.00  0.00    +0.034 C 
BRANCH  31  33
ATOM     33  OG1 THR A   3     -13.888  24.565 -13.408  0.00  0.00    -0.382 OA
ATOM     34  HG1 THR A   3     -14.746  24.460 -12.926  0.00  0.00    +0.210 HD
ENDBRANCH  31  33
ENDBRANCH   1  31
TORSDOF 14
REMARK  Name = ../refined-set-2016/4r74/4r74_pocket.pdb
REMARK  223 active torsions:
REMARK  status: ('A' for Active; 'I' for Inactive)
REMARK    1  A    between atoms: _1  and  _3
REMARK    2  A    between atoms: _3  and  _4
REMARK    3  A    between atoms: _3  and  _6
REMARK    4  A    between atoms: _6  and  _7
REMARK    5  A    between atoms: _9  and  _11
REMARK    6  A    between atoms: _11  and  _12
REMARK    7  A    between atoms: _15  and  _17
REMARK    8  A    between atoms: _17  and  _18
REMARK    9  A    between atoms: _17  and  _20
REMARK   10  A    between atoms: _20  and  _21
REMARK   11  A    between atoms: _24  and  _26
REMARK   12  A    between atoms: _26  and  _27
REMARK   13  A    between atoms: _26  and  _29
REMARK   14  A    between atoms: _29  and  _30
REMARK   15  A    between atoms: _35  and  _37
REMARK   16  A    between atoms: _37  and  _38
REMARK   17  A    between atoms: _37  and  _40
REMARK   18  A    between atoms: _40  and  _41
REMARK   19  A    between atoms: _41  and  _42
REMARK   20  A    between atoms: _44  and  _46
REMARK   21  A    between atoms: _46  and  _47
REMARK   22  A    between atoms: _46  and  _49
REMARK   23  A    between atoms: _49  and  _50
REMARK   24  A    between atoms: _50  and  _51
REMARK   25  A    between atoms: _51  and  _52
REMARK   26  A    between atoms: _61  and  _63
REMARK   27  A    between atoms: _63  and  _64
REMARK   28  A    between atoms: _63  and  _66
REMARK   29  A    between atoms: _66  and  _67
REMARK   30  A    between atoms: _72  and  _74
REMARK   31  A    between atoms: _74  and  _75
REMARK   32  A    between atoms: _77  and  _79
REMARK   33  A    between atoms: _79  and  _80
REMARK   34  A    between atoms: _79  and  _82
REMARK   35  A    between atoms: _82  and  _83
REMARK   36  A    between atoms: _85  and  _87
REMARK   37  A    between atoms: _87  and  _88
REMARK   38  A    between atoms: _90  and  _92
REMARK   39  A    between atoms: _92  and  _93
REMARK   40  A    between atoms: _92  and  _95
REMARK   41  A    between atoms: _95  and  _96
REMARK   42  A    between atoms: _98  and  _100
REMARK   43  A    between atoms: _100  and  _101
REMARK   44  A    between atoms: _100  and  _103
REMARK   45  A    between atoms: _103  and  _104
REMARK   46  A    between atoms: _107  and  _109
REMARK   47  A    between atoms: _109  and  _110
REMARK   48  A    between atoms: _109  and  _112
REMARK   49  A    between atoms: _112  and  _113
REMARK   50  A    between atoms: _119  and  _121
REMARK   51  A    between atoms: _121  and  _122
REMARK   52  A    between atoms: _121  and  _124
REMARK   53  A    between atoms: _124  and  _125
REMARK   54  A    between atoms: _135  and  _137
REMARK   55  A    between atoms: _137  and  _138
REMARK   56  A    between atoms: _137  and  _140
REMARK   57  A    between atoms: _140  and  _141
REMARK   58  A    between atoms: _146  and  _147
REMARK   59  A    between atoms: _149  and  _151
REMARK   60  A    between atoms: _151  and  _152
REMARK   61  A    between atoms: _154  and  _156
REMARK   62  A    between atoms: _156  and  _157
REMARK   63  A    between atoms: _159  and  _161
REMARK   64  A    between atoms: _161  and  _162
REMARK   65  A    between atoms: _161  and  _164
REMARK   66  A    between atoms: _164  and  _165
REMARK   67  A    between atoms: _168  and  _170
REMARK   68  A    between atoms: _170  and  _171
REMARK   69  A    between atoms: _170  and  _173
REMARK   70  A    between atoms: _173  and  _174
REMARK   71  A    between atoms: _178  and  _179
REMARK   72  A    between atoms: _184  and  _186
REMARK   73  A    between atoms: _186  and  _187
REMARK   74  A    between atoms: _186  and  _189
REMARK   75  A    between atoms: _189  and  _190
REMARK   76  A    between atoms: _190  and  _191
REMARK   77  A    between atoms: _196  and  _198
REMARK   78  A    between atoms: _198  and  _199
REMARK   79  A    between atoms: _198  and  _201
REMARK   80  A    between atoms: _204  and  _206
REMARK   81  A    between atoms: _206  and  _207
REMARK   82  A    between atoms: _206  and  _209
REMARK   83  A    between atoms: _209  and  _210
REMARK   84  A    between atoms: _215  and  _216
REMARK   85  A    between atoms: _218  and  _220
REMARK   86  A    between atoms: _220  and  _221
REMARK   87  A    between atoms: _220  and  _223
REMARK   88  A    between atoms: _223  and  _224
REMARK   89  A    between atoms: _227  and  _229
REMARK   90  A    between atoms: _229  and  _230
REMARK   91  A    between atoms: _232  and  _234
REMARK   92  A    between atoms: _234  and  _235
REMARK   93  A    between atoms: _234  and  _237
REMARK   94  A    between atoms: _237  and  _238
REMARK   95  A    between atoms: _241  and  _243
REMARK   96  A    between atoms: _243  and  _244
REMARK   97  A    between atoms: _247  and  _249
REMARK   98  A    between atoms: _249  and  _250
REMARK   99  A    between atoms: _249  and  _252
REMARK  100  A    between atoms: _252  and  _253
REMARK  101  A    between atoms: _257  and  _258
REMARK  102  A    between atoms: _263  and  _265
REMARK  103  A    between atoms: _265  and  _266
REMARK  104  A    between atoms: _265  and  _268
REMARK  105  A    between atoms: _268  and  _269
REMARK  106  A    between atoms: _271  and  _273
REMARK  107  A    between atoms: _273  and  _274
REMARK  108  A    between atoms: _273  and  _276
REMARK  109  A    between atoms: _276  and  _277
REMARK  110  A    between atoms: _279  and  _281
REMARK  111  A    between atoms: _281  and  _282
REMARK  112  A    between atoms: _284  and  _286
REMARK  113  A    between atoms: _286  and  _287
REMARK  114  A    between atoms: _286  and  _289
REMARK  115  A    between atoms: _289  and  _290
REMARK  116  A    between atoms: _293  and  _295
REMARK  117  A    between atoms: _295  and  _296
REMARK  118  A    between atoms: _299  and  _301
REMARK  119  A    between atoms: _301  and  _302
REMARK  120  A    between atoms: _301  and  _304
REMARK  121  A    between atoms: _304  and  _305
REMARK  122  A    between atoms: _310  and  _311
REMARK  123  A    between atoms: _313  and  _315
REMARK  124  A    between atoms: _315  and  _316
REMARK  125  A    between atoms: _315  and  _318
REMARK  126  A    between atoms: _318  and  _319
REMARK  127  A    between atoms: _322  and  _324
REMARK  128  A    between atoms: _324  and  _325
REMARK  129  A    between atoms: _328  and  _330
REMARK  130  A    between atoms: _330  and  _331
REMARK  131  A    between atoms: _330  and  _333
REMARK  132  A    between atoms: _333  and  _334
REMARK  133  A    between atoms: _337  and  _339
REMARK  134  A    between atoms: _339  and  _340
REMARK  135  A    between atoms: _339  and  _342
REMARK  136  A    between atoms: _342  and  _343
REMARK  137  A    between atoms: _343  and  _344
REMARK  138  A    between atoms: _344  and  _345
REMARK  139  A    between atoms: _345  and  _346
REMARK  140  A    between atoms: _350  and  _352
REMARK  141  A    between atoms: _352  and  _353
REMARK  142  A    between atoms: _352  and  _355
REMARK  143  A    between atoms: _355  and  _356
REMARK  144  A    between atoms: _358  and  _360
REMARK  145  A    between atoms: _360  and  _361
REMARK  146  A    between atoms: _363  and  _365
REMARK  147  A    between atoms: _365  and  _366
REMARK  148  A    between atoms: _365  and  _368
REMARK  149  A    between atoms: _368  and  _369
REMARK  150  A    between atoms: _372  and  _374
REMARK  151  A    between atoms: _374  and  _375
REMARK  152  A    between atoms: _374  and  _377
REMARK  153  A    between atoms: _377  and  _378
REMARK  154  A    between atoms: _381  and  _383
REMARK  155  A    between atoms: _383  and  _384
REMARK  156  A    between atoms: _387  and  _389
REMARK  157  A    between atoms: _389  and  _390
REMARK  158  A    between atoms: _389  and  _392
REMARK  159  A    between atoms: _392  and  _393
REMARK  160  A    between atoms: _393  and  _394
REMARK  161  A    between atoms: _394  and  _395
REMARK  162  A    between atoms: _404  and  _406
REMARK  163  A    between atoms: _406  and  _407
REMARK  164  A    between atoms: _409  and  _411
REMARK  165  A    between atoms: _411  and  _412
REMARK  166  A    between atoms: _411  and  _414
REMARK  167  A    between atoms: _414  and  _415
REMARK  168  A    between atoms: _421  and  _423
REMARK  169  A    between atoms: _423  and  _424
REMARK  170  A    between atoms: _423  and  _426
REMARK  171  A    between atoms: _426  and  _427
REMARK  172  A    between atoms: _430  and  _432
REMARK  173  A    between atoms: _432  and  _433
REMARK  174  A    between atoms: _432  and  _435
REMARK  175  A    between atoms: _435  and  _436
REMARK  176  A    between atoms: _441  and  _443
REMARK  177  A    between atoms: _443  and  _444
REMARK  178  A    between atoms: _443  and  _446
REMARK  179  A    between atoms: _446  and  _447
REMARK  180  A    between atoms: _450  and  _452
REMARK  181  A    between atoms: _452  and  _453
REMARK  182  A    between atoms: _452  and  _455
REMARK  183  A    between atoms: _455  and  _456
REMARK  184  A    between atoms: _461  and  _462
REMARK  185  A    between atoms: _464  and  _466
REMARK  186  A    between atoms: _466  and  _467
REMARK  187  A    between atoms: _466  and  _469
REMARK  188  A    between atoms: _469  and  _470
REMARK  189  A    between atoms: _470  and  _471
REMARK  190  A    between atoms: _474  and  _476
REMARK  191  A    between atoms: _476  and  _477
REMARK  192  A    between atoms: _476  and  _479
REMARK  193  A    between atoms: _479  and  _480
REMARK  194  A    between atoms: _483  and  _485
REMARK  195  A    between atoms: _485  and  _486
REMARK  196  A    between atoms: _488  and  _490
REMARK  197  A    between atoms: _490  and  _491
REMARK  198  A    between atoms: _493  and  _495
REMARK  199  A    between atoms: _495  and  _496
REMARK  200  A    between atoms: _495  and  _498
REMARK  201  A    between atoms: _498  and  _499
REMARK  202  A    between atoms: _499  and  _500
REMARK  203  A    between atoms: _505  and  _507
REMARK  204  A    between atoms: _507  and  _508
REMARK  205  A    between atoms: _511  and  _513
REMARK  206  A    between atoms: _513  and  _514
REMARK  207  A    between atoms: _513  and  _516
REMARK  208  A    between atoms: _516  and  _517
REMARK  209  A    between atoms: _520  and  _522
REMARK  210  A    between atoms: _522  and  _523
REMARK  211  A    between atoms: _522  and  _525
REMARK  212  A    between atoms: _525  and  _526
REMARK  213  A    between atoms: _526  and  _527
REMARK  214  A    between atoms: _532  and  _534
REMARK  215  A    between atoms: _534  and  _535
REMARK  216  A    between atoms: _534  and  _537
REMARK  217  A    between atoms: _537  and  _538
REMARK  218  A    between atoms: _541  and  _543
REMARK  219  A    between atoms: _543  and  _544
REMARK  220  A    between atoms: _543  and  _546
REMARK  221  A    between atoms: _546  and  _547
REMARK  222  A    between atoms: _547  and  _548
REMARK  223  A    between atoms: _548  and  _549
REMARK                            x       y       z     vdW  Elec       q    Type
REMARK                         _______ _______ _______ _____ _____    ______ ____
ROOT
ATOM      1  CA  MET A   1     -14.104  28.184 -15.357  0.00  0.00    +0.134 C 
ENDROOT
BRANCH   1   2
ATOM      2  N   MET A   1     -14.673  26.913 -15.817  0.00  0.00    -0.239 NA
ATOM      3  H   MET A   1     -14.370  26.024 -15.370  0.00  0.00    +0.142 HD
ENDBRANCH   1   2
BRANCH   1   4
ATOM      4  C   MET A   1     -13.193  28.777 -16.421  0.00  0.00    +0.224 C 
ATOM      5  O   MET A   1     -13.270  29.981 -16.706  0.00  0.00    -0.287 OA
ENDBRANCH   1   4
BRANCH   1   6
ATOM      6  CB  MET A   1     -13.323  28.023 -14.039  0.00  0.00    +0.037 C 
BRANCH   6   7
ATOM      7  CG  MET A   1     -12.772  29.360 -13.493  0.00  0.00    +0.059 C 
BRANCH   7   8
ATOM      8  SD  MET A   1     -11.613  29.294 -12.089  0.00  0.00    -0.139 S 
ATOM      9  CE  MET A   1     -11.264  31.037 -11.864  0.00  0.00    +0.069 C 
ENDBRANCH   7   8
ENDBRANCH   6   7
ENDBRANCH   1   6
TORSDOF 5
REMARK  Name = ../refined-set-2016/4r74/4r74_pocket.pdb
REMARK  223 active torsions:
REMARK  status: ('A' for Active; 'I' for Inactive)
REMARK    1  A    between atoms: _1  and  _3
REMARK    2  A    between atoms: _3  and  _4
REMARK    3  A    between atoms: _3  and  _6
REMARK    4  A    between atoms: _6  and  _7
REMARK    5  A    between atoms: _9  and  _11
REMARK    6  A    between atoms: _11  and  _12
REMARK    7  A    between atoms: _15  and  _17
REMARK    8  A    between atoms: _17  and  _18
REMARK    9  A    between atoms: _17  and  _20
REMARK   10  A    between atoms: _20  and  _21
REMARK   11  A    between atoms: _24  and  _26
REMARK   12  A    between atoms: _26  and  _27
REMARK   13  A    between atoms: _26  and  _29
REMARK   14  A    between atoms: _29  and  _30
REMARK   15  A    between atoms: _35  and  _37
REMARK   16  A    between atoms: _37  and  _38
REMARK   17  A    between atoms: _37  and  _40
REMARK   18  A    between atoms: _40  and  _41
REMARK   19  A    between atoms: _41  and  _42
REMARK   20  A    between atoms: _44  and  _46
REMARK   21  A    between atoms: _46  and  _47
REMARK   22  A    between atoms: _46  and  _49
REMARK   23  A    between atoms: _49  and  _50
REMARK   24  A    between atoms: _50  and  _51
REMARK   25  A    between atoms: _51  and  _52
REMARK   26  A    between atoms: _61  and  _63
REMARK   27  A    between atoms: _63  and  _64
REMARK   28  A    between atoms: _63  and  _66
REMARK   29  A    between atoms: _66  and  _67
REMARK   30  A    between atoms: _72  and  _74
REMARK   31  A    between atoms: _74  and  _75
REMARK   32  A    between atoms: _77  and  _79
REMARK   33  A    between atoms: _79  and  _80
REMARK   34  A    between atoms: _79  and  _82
REMARK   35  A    between atoms: _82  and  _83
REMARK   36  A    between atoms: _85  and  _87
REMARK   37  A    between atoms: _87  and  _88
REMARK   38  A    between atoms: _90  and  _92
REMARK   39  A    between atoms: _92  and  _93
REMARK   40  A    between atoms: _92  and  _95
REMARK   41  A    between atoms: _95  and  _96
REMARK   42  A    between atoms: _98  and  _100
REMARK   43  A    between atoms: _100  and  _101
REMARK   44  A    between atoms: _100  and  _103
REMARK   45  A    between atoms: _103  and  _104
REMARK   46  A    between atoms: _107  and  _109
REMARK   47  A    between atoms: _109  and  _110
REMARK   48  A    between atoms: _109  and  _112
REMARK   49  A    between atoms: _112  and  _113
REMARK   50  A    between atoms: _119  and  _121
REMARK   51  A    between atoms: _121  and  _122
REMARK   52  A    between atoms: _121  and  _124
REMARK   53  A    between atoms: _124  and  _125
REMARK   54  A    between atoms: _135  and  _137
REMARK   55  A    between atoms: _137  and  _138
REMARK   56  A    between atoms: _137  and  _140
REMARK   57  A    between atoms: _140  and  _141
REMARK   58  A    between atoms: _146  and  _147
REMARK   59  A    between atoms: _149  and  _151
REMARK   60  A    between atoms: _151  and  _152
REMARK   61  A    between atoms: _154  and  _156
REMARK   62  A    between atoms: _156  and  _157
REMARK   63  A    between atoms: _159  and  _161
REMARK   64  A    between atoms: _161  and  _162
REMARK   65  A    between atoms: _161  and  _164
REMARK   66  A    between atoms: _164  and  _165
REMARK   67  A    between atoms: _168  and  _170
REMARK   68  A    between atoms: _170  and  _171
REMARK   69  A    between atoms: _170  and  _173
REMARK   70  A    between atoms: _173  and  _174
REMARK   71  A    between atoms: _178  and  _179
REMARK   72  A    between atoms: _184  and  _186
REMARK   73  A    between atoms: _186  and  _187
REMARK   74  A    between atoms: _186  and  _189
REMARK   75  A    between atoms: _189  and  _190
REMARK   76  A    between atoms: _190  and  _191
REMARK   77  A    between atoms: _196  and  _198
REMARK   78  A    between atoms: _198  and  _199
REMARK   79  A    between atoms: _198  and  _201
REMARK   80  A    between atoms: _204  and  _206
REMARK   81  A    between atoms: _206  and  _207
REMARK   82  A    between atoms: _206  and  _209
REMARK   83  A    between atoms: _209  and  _210
REMARK   84  A    between atoms: _215  and  _216
REMARK   85  A    between atoms: _218  and  _220
REMARK   86  A    between atoms: _220  and  _221
REMARK   87  A    between atoms: _220  and  _223
REMARK   88  A    between atoms: _223  and  _224
REMARK   89  A    between atoms: _227  and  _229
REMARK   90  A    between atoms: _229  and  _230
REMARK   91  A    between atoms: _232  and  _234
REMARK   92  A    between atoms: _234  and  _235
REMARK   93  A    between atoms: _234  and  _237
REMARK   94  A    between atoms: _237  and  _238
REMARK   95  A    between atoms: _241  and  _243
REMARK   96  A    between atoms: _243  and  _244
REMARK   97  A    between atoms: _247  and  _249
REMARK   98  A    between atoms: _249  and  _250
REMARK   99  A    between atoms: _249  and  _252
REMARK  100  A    between atoms: _252  and  _253
REMARK  101  A    between atoms: _257  and  _258
REMARK  102  A    between atoms: _263  and  _265
REMARK  103  A    between atoms: _265  and  _266
REMARK  104  A    between atoms: _265  and  _268
REMARK  105  A    between atoms: _268  and  _269
REMARK  106  A    between atoms: _271  and  _273
REMARK  107  A    between atoms: _273  and  _274
REMARK  108  A    between atoms: _273  and  _276
REMARK  109  A    between atoms: _276  and  _277
REMARK  110  A    between atoms: _279  and  _281
REMARK  111  A    between atoms: _281  and  _282
REMARK  112  A    between atoms: _284  and  _286
REMARK  113  A    between atoms: _286  and  _287
REMARK  114  A    between atoms: _286  and  _289
REMARK  115  A    between atoms: _289  and  _290
REMARK  116  A    between atoms: _293  and  _295
REMARK  117  A    between atoms: _295  and  _296
REMARK  118  A    between atoms: _299  and  _301
REMARK  119  A    between atoms: _301  and  _302
REMARK  120  A    between atoms: _301  and  _304
REMARK  121  A    between atoms: _304  and  _305
REMARK  122  A    between atoms: _310  and  _311
REMARK  123  A    between atoms: _313  and  _315
REMARK  124  A    between atoms: _315  and  _316
REMARK  125  A    between atoms: _315  and  _318
REMARK  126  A    between atoms: _318  and  _319
REMARK  127  A    between atoms: _322  and  _324
REMARK  128  A    between atoms: _324  and  _325
REMARK  129  A    between atoms: _328  and  _330
REMARK  130  A    between atoms: _330  and  _331
REMARK  131  A    between atoms: _330  and  _333
REMARK  132  A    between atoms: _333  and  _334
REMARK  133  A    between atoms: _337  and  _339
REMARK  134  A    between atoms: _339  and  _340
REMARK  135  A    between atoms: _339  and  _342
REMARK  136  A    between atoms: _342  and  _343
REMARK  137  A    between atoms: _343  and  _344
REMARK  138  A    between atoms: _344  and  _345
REMARK  139  A    between atoms: _345  and  _346
REMARK  140  A    between atoms: _350  and  _352
REMARK  141  A    between atoms: _352  and  _353
REMARK  142  A    between atoms: _352  and  _355
REMARK  143  A    between atoms: _355  and  _356
REMARK  144  A    between atoms: _358  and  _360
REMARK  145  A    between atoms: _360  and  _361
REMARK  146  A    between atoms: _363  and  _365
REMARK  147  A    between atoms: _365  and  _366
REMARK  148  A    between atoms: _365  and  _368
REMARK  149  A    between atoms: _368  and  _369
REMARK  150  A    between atoms: _372  and  _374
REMARK  151  A    between atoms: _374  and  _375
REMARK  152  A    between atoms: _374  and  _377
REMARK  153  A    between atoms: _377  and  _378
REMARK  154  A    between atoms: _381  and  _383
REMARK  155  A    between atoms: _383  and  _384
REMARK  156  A    between atoms: _387  and  _389
REMARK  157  A    between atoms: _389  and  _390
REMARK  158  A    between atoms: _389  and  _392
REMARK  159  A    between atoms: _392  and  _393
REMARK  160  A    between atoms: _393  and  _394
REMARK  161  A    between atoms: _394  and  _395
REMARK  162  A    between atoms: _404  and  _406
REMARK  163  A    between atoms: _406  and  _407
REMARK  164  A    between atoms: _409  and  _411
REMARK  165  A    between atoms: _411  and  _412
REMARK  166  A    between atoms: _411  and  _414
REMARK  167  A    between atoms: _414  and  _415
REMARK  168  A    between atoms: _421  and  _423
REMARK  169  A    between atoms: _423  and  _424
REMARK  170  A    between atoms: _423  and  _426
REMARK  171  A    between atoms: _426  and  _427
REMARK  172  A    between atoms: _430  and  _432
REMARK  173  A    between atoms: _432  and  _433
REMARK  174  A    between atoms: _432  and  _435
REMARK  175  A    between atoms: _435  and  _436
REMARK  176  A    between atoms: _441  and  _443
REMARK  177  A    between atoms: _443  and  _444
REMARK  178  A    between atoms: _443  and  _446
REMARK  179  A    between atoms: _446  and  _447
REMARK  180  A    between atoms: _450  and  _452
REMARK  181  A    between atoms: _452  and  _453
REMARK  182  A    between atoms: _452  and  _455
REMARK  183  A    between atoms: _455  and  _456
REMARK  184  A    between atoms: _461  and  _462
REMARK  185  A    between atoms: _464  and  _466
REMARK  186  A    between atoms: _466  and  _467
REMARK  187  A    between atoms: _466  and  _469
REMARK  188  A    between atoms: _469  and  _470
REMARK  189  A    between atoms: _470  and  _471
REMARK  190  A    between atoms: _474  and  _476
REMARK  191  A    between atoms: _476  and  _477
REMARK  192  A    between atoms: _476  and  _479
REMARK  193  A    between atoms: _479  and  _480
REMARK  194  A    between atoms: _483  and  _485
REMARK  195  A    between atoms: _485  and  _486
REMARK  196  A    between atoms: _488  and  _490
REMARK  197  A    between atoms: _490  and  _491
REMARK  198  A    between atoms: _493  and  _495
REMARK  199  A    between atoms: _495  and  _496
REMARK  200  A    between atoms: _495  and  _498
REMARK  201  A    between atoms: _498  and  _499
REMARK  202  A    between atoms: _499  and  _500
REMARK  203  A    between atoms: _505  and  _507
REMARK  204  A    between atoms: _507  and  _508
REMARK  205  A    between atoms: _511  and  _513
REMARK  206  A    between atoms: _513  and  _514
REMARK  207  A    between atoms: _513  and  _516
REMARK  208  A    between atoms: _516  and  _517
REMARK  209  A    between atoms: _520  and  _522
REMARK  210  A    between atoms: _522  and  _523
REMARK  211  A    between atoms: _522  and  _525
REMARK  212  A    between atoms: _525  and  _526
REMARK  213  A    between atoms: _526  and  _527
REMARK  214  A    between atoms: _532  and  _534
REMARK  215  A    between atoms: _534  and  _535
REMARK  216  A    between atoms: _534  and  _537
REMARK  217  A    between atoms: _537  and  _538
REMARK  218  A    between atoms: _541  and  _543
REMARK  219  A    between atoms: _543  and  _544
REMARK  220  A    between atoms: _543  and  _546
REMARK  221  A    between atoms: _546  and  _547
REMARK  222  A    between atoms: _547  and  _548
REMARK  223  A    between atoms: _548  and  _549
REMARK                            x       y       z     vdW  Elec       q    Type
REMARK                         _______ _______ _______ _____ _____    ______ ____
ROOT
ATOM      1  CA  SER A   4      -1.181  22.069 -12.265  0.00  0.00    +0.178 C 
ENDROOT
BRANCH   1   3
ATOM      2  C   GLY A   3      -2.321  20.640 -13.892  0.00  0.00    +0.243 C 
ATOM      3  N   SER A   4      -2.246  21.150 -12.666  0.00  0.00    -0.295 N 
ATOM      4  H   SER A   4      -2.970  20.886 -11.968  0.00  0.00    +0.150 HD
ATOM      5  O   GLY A   3      -1.502  20.899 -14.790  0.00  0.00    -0.273 OA
BRANCH   2   6
ATOM      6  CA  GLY A   3      -3.498  19.716 -14.152  0.00  0.00    +0.176 C 
BRANCH   6   8
ATOM      7  C   ASN A   2      -4.120  20.627 -16.322  0.00  0.00    +0.241 C 
ATOM      8  N   GLY A   3      -3.824  19.573 -15.566  0.00  0.00    -0.295 N 
ATOM      9  H   GLY A   3      -3.825  18.625 -15.994  0.00  0.00    +0.150 HD
ATOM     10  O   ASN A   2      -4.190  21.780 -15.890  0.00  0.00    -0.273 OA
BRANCH   7  11
ATOM     11  CA  ASN A   2      -4.425  20.348 -17.783  0.00  0.00    +0.158 C 
BRANCH  11  13
ATOM     12  C   ARG A   1      -5.901  21.329 -19.416  0.00  0.00    +0.238 C 
ATOM     13  N   ASN A   2      -5.109  21.490 -18.365  0.00  0.00    -0.297 N 
ATOM     14  H   ASN A   2      -4.977  22.437 -17.956  0.00  0.00    +0.150 HD
ATOM     15  O   ARG A   1      -5.995  20.258 -20.010  0.00  0.00    -0.274 OA
BRANCH  12  16
ATOM     16  CA  ARG A   1      -6.691  22.557 -19.866  0.00  0.00    +0.145 C 
BRANCH  16  17
ATOM     17  N   ARG A   1      -6.519  22.823 -21.286  0.00  0.00    -0.238 NA
ATOM     18  H   ARG A   1      -7.068  22.279 -21.982  0.00  0.00    +0.142 HD
ENDBRANCH  16  17
BRANCH  16  19
ATOM     19  CB  ARG A   1      -8.168  22.379 -19.542  0.00  0.00    +0.030 C 
BRANCH  19  20
ATOM     20  CG  ARG A   1      -8.500  22.507 -18.075  0.00  0.00    +0.045 C 
BRANCH  20  21
ATOM     21  CD  ARG A   1      -9.319  21.320 -17.609  0.00  0.00    +0.174 C 
BRANCH  21  22
ATOM     22  NE  ARG A   1      -8.467  20.178 -17.300  0.00  0.00    -0.265 N 
ATOM     23  CZ  ARG A   1      -7.766  20.055 -16.175  0.00  0.00    +0.342 C 
ATOM     24  NH2 ARG A   1      -7.808  21.010 -15.247  0.00  0.00    -0.292 N 
ATOM     25 HH21 ARG A   1      -7.258  20.908 -14.370  0.00  0.00    +0.255 HD
ATOM     26 HH22 ARG A   1      -8.391  21.858 -15.399  0.00  0.00    +0.255 HD
ATOM     27  NH1 ARG A   1      -7.016  18.978 -15.981  0.00  0.00    -0.292 N 
ATOM     28 HH11 ARG A   1      -6.467  18.878 -15.104  0.00  0.00    +0.255 HD
ATOM     29 HH12 ARG A   1      -6.977  18.234 -16.706  0.00  0.00    +0.255 HD
ATOM     30  HE  ARG A   1      -8.403  19.413 -18.001  0.00  0.00    +0.259 HD
ENDBRANCH  21  22
ENDBRANCH  20  21
ENDBRANCH  19  20
ENDBRANCH  16  19
ENDBRANCH  12  16
ENDBRANCH  11  13
BRANCH  11  31
ATOM     31  CB  ASN A   2      -3.147  20.015 -18.558  0.00  0.00    +0.114 C 
BRANCH  31  32
ATOM     32  CG  ASN A   2      -3.030  18.533 -18.866  0.00  0.00    +0.222 C 
ATOM     33  OD1 ASN A   2      -3.356  17.686 -18.031  0.00  0.00    -0.275 OA
ATOM     34  ND2 ASN A   2      -2.573  18.212 -20.067  0.00  0.00    -0.329 N 
ATOM     35 HD21 ASN A   2      -2.477  17.212 -20.337  0.00  0.00    +0.145 HD
ATOM     36 HD22 ASN A   2      -2.310  18.960 -20.740  0.00  0.00    +0.145 HD
ENDBRANCH  31  32
ENDBRANCH  11  31
ENDBRANCH   7  11
ENDBRANCH   6   8
ENDBRANCH   2   6
ENDBRANCH   1   3
BRANCH   1  37
ATOM     37  C   SER A   4       0.203  21.444 -12.432  0.00  0.00    +0.243 C 
ATOM     38  N   GLY A   5       0.357  20.208 -11.964  0.00  0.00    -0.295 N 
ATOM     39  H   GLY A   5      -0.432  19.746 -11.468  0.00  0.00    +0.150 HD
ATOM     40  O   SER A   4       1.120  22.077 -12.954  0.00  0.00    -0.273 OA
BRANCH  38  41
ATOM     41  CA  GLY A   5       1.615  19.492 -12.137  0.00  0.00    +0.176 C 
BRANCH  41  42
ATOM     42  C   GLY A   5       1.883  19.110 -13.592  0.00  0.00    +0.243 C 
ATOM     43  O   GLY A   5       3.004  19.280 -14.102  0.00  0.00    -0.273 OA
ATOM     44  N   SER A   6       0.863  18.582 -14.265  0.00  0.00    -0.295 N 
ATOM     45  H   SER A   6      -0.035  18.405 -13.770  0.00  0.00    +0.150 HD
BRANCH  44  46
ATOM     46  CA  SER A   6       0.976  18.243 -15.691  0.00  0.00    +0.178 C 
BRANCH  46  47
ATOM     47  C   SER A   6       1.354  19.465 -16.533  0.00  0.00    +0.243 C 
ATOM     48  N   THR A   7       0.822  20.625 -16.154  0.00  0.00    -0.295 N 
ATOM     49  H   THR A   7       0.235  20.663 -15.296  0.00  0.00    +0.150 HD
ATOM     50  O   SER A   6       2.102  19.361 -17.512  0.00  0.00    -0.273 OA
BRANCH  48  51
ATOM     51  CA  THR A   7       1.051  21.850 -16.927  0.00  0.00    +0.176 C 
BRANCH  51  52
ATOM     52  C   THR A   7       2.469  22.369 -16.718  0.00  0.00    +0.243 C 
ATOM     53  N   PHE A   8       2.961  22.280 -15.485  0.00  0.00    -0.298 N 
ATOM     54  H   PHE A   8       2.337  21.974 -14.711  0.00  0.00    +0.150 HD
ATOM     55  O   THR A   7       3.110  22.832 -17.664  0.00  0.00    -0.273 OA
BRANCH  53  56
ATOM     56  CA  PHE A   8       4.356  22.602 -15.190  0.00  0.00    +0.141 C 
BRANCH  56  57
ATOM     57  C   PHE A   8       5.343  21.776 -16.024  0.00  0.00    +0.227 C 
ATOM     58  O   PHE A   8       6.328  22.305 -16.554  0.00  0.00    -0.286 OA
ENDBRANCH  56  57
BRANCH  56  59
ATOM     59  CB  PHE A   8       4.672  22.375 -13.707  0.00  0.00    +0.054 C 
BRANCH  59  60
ATOM     60  CG  PHE A   8       6.140  22.465 -13.394  0.00  0.00    -0.020 A 
ATOM     61  CD2 PHE A   8       6.738  23.697 -13.147  0.00  0.00    -0.004 A 
ATOM     62  CE2 PHE A   8       8.090  23.794 -12.883  0.00  0.00    -0.000 A 
ATOM     63  CZ  PHE A   8       8.875  22.656 -12.881  0.00  0.00    -0.000 A 
ATOM     64  CE1 PHE A   8       8.299  21.415 -13.141  0.00  0.00    -0.000 A 
ATOM     65  CD1 PHE A   8       6.936  21.326 -13.390  0.00  0.00    -0.004 A 
ENDBRANCH  59  60
ENDBRANCH  56  59
ENDBRANCH  53  56
ENDBRANCH  51  52
BRANCH  51  66
ATOM     66  CB  THR A   7       0.029  22.958 -16.575  0.00  0.00    +0.137 C 
ATOM     67  CG2 THR A   7       0.340  24.255 -17.343  0.00  0.00    +0.034 C 
BRANCH  66  68
ATOM     68  OG1 THR A   7      -1.287  22.520 -16.933  0.00  0.00    -0.382 OA
ATOM     69  HG1 THR A   7      -1.507  21.695 -16.432  0.00  0.00    +0.210 HD
ENDBRANCH  66  68
ENDBRANCH  51  66
ENDBRANCH  48  51
ENDBRANCH  46  47
BRANCH  46  70
ATOM     70  CB  SER A   6      -0.334  17.667 -16.224  0.00  0.00    +0.166 C 
BRANCH  70  71
ATOM     71  OG  SER A   6      -0.723  16.502 -15.521  0.00  0.00    -0.380 OA
ATOM     72  H   SER A   6      -0.020  15.812 -15.614  0.00  0.00    +0.211 HD
ENDBRANCH  70  71
ENDBRANCH  46  70
ENDBRANCH  44  46
ENDBRANCH  41  42
ENDBRANCH  38  41
ENDBRANCH   1  37
BRANCH   1  73
ATOM     73  CB  SER A   4      -1.365  22.508 -10.813  0.00  0.00    +0.166 C 
BRANCH  73  74
ATOM     74  OG  SER A   4      -2.702  22.901 -10.535  0.00  0.00    -0.380 OA
ATOM     75  H   SER A   4      -3.311  22.139 -10.706  0.00  0.00    +0.211 HD
ENDBRANCH  73  74
ENDBRANCH   1  73
TORSDOF 30
REMARK  Name = ../refined-set-2016/4r74/4r74_pocket.pdb
REMARK  223 active torsions:
REMARK  status: ('A' for Active; 'I' for Inactive)
REMARK    1  A    between atoms: _1  and  _3
REMARK    2  A    between atoms: _3  and  _4
REMARK    3  A    between atoms: _3  and  _6
REMARK    4  A    between atoms: _6  and  _7
REMARK    5  A    between atoms: _9  and  _11
REMARK    6  A    between atoms: _11  and  _12
REMARK    7  A    between atoms: _15  and  _17
REMARK    8  A    between atoms: _17  and  _18
REMARK    9  A    between atoms: _17  and  _20
REMARK   10  A    between atoms: _20  and  _21
REMARK   11  A    between atoms: _24  and  _26
REMARK   12  A    between atoms: _26  and  _27
REMARK   13  A    between atoms: _26  and  _29
REMARK   14  A    between atoms: _29  and  _30
REMARK   15  A    between atoms: _35  and  _37
REMARK   16  A    between atoms: _37  and  _38
REMARK   17  A    between atoms: _37  and  _40
REMARK   18  A    between atoms: _40  and  _41
REMARK   19  A    between atoms: _41  and  _42
REMARK   20  A    between atoms: _44  and  _46
REMARK   21  A    between atoms: _46  and  _47
REMARK   22  A    between atoms: _46  and  _49
REMARK   23  A    between atoms: _49  and  _50
REMARK   24  A    between atoms: _50  and  _51
REMARK   25  A    between atoms: _51  and  _52
REMARK   26  A    between atoms: _61  and  _63
REMARK   27  A    between atoms: _63  and  _64
REMARK   28  A    between atoms: _63  and  _66
REMARK   29  A    between atoms: _66  and  _67
REMARK   30  A    between atoms: _72  and  _74
REMARK   31  A    between atoms: _74  and  _75
REMARK   32  A    between atoms: _77  and  _79
REMARK   33  A    between atoms: _79  and  _80
REMARK   34  A    between atoms: _79  and  _82
REMARK   35  A    between atoms: _82  and  _83
REMARK   36  A    between atoms: _85  and  _87
REMARK   37  A    between atoms: _87  and  _88
REMARK   38  A    between atoms: _90  and  _92
REMARK   39  A    between atoms: _92  and  _93
REMARK   40  A    between atoms: _92  and  _95
REMARK   41  A    between atoms: _95  and  _96
REMARK   42  A    between atoms: _98  and  _100
REMARK   43  A    between atoms: _100  and  _101
REMARK   44  A    between atoms: _100  and  _103
REMARK   45  A    between atoms: _103  and  _104
REMARK   46  A    between atoms: _107  and  _109
REMARK   47  A    between atoms: _109  and  _110
REMARK   48  A    between atoms: _109  and  _112
REMARK   49  A    between atoms: _112  and  _113
REMARK   50  A    between atoms: _119  and  _121
REMARK   51  A    between atoms: _121  and  _122
REMARK   52  A    between atoms: _121  and  _124
REMARK   53  A    between atoms: _124  and  _125
REMARK   54  A    between atoms: _135  and  _137
REMARK   55  A    between atoms: _137  and  _138
REMARK   56  A    between atoms: _137  and  _140
REMARK   57  A    between atoms: _140  and  _141
REMARK   58  A    between atoms: _146  and  _147
REMARK   59  A    between atoms: _149  and  _151
REMARK   60  A    between atoms: _151  and  _152
REMARK   61  A    between atoms: _154  and  _156
REMARK   62  A    between atoms: _156  and  _157
REMARK   63  A    between atoms: _159  and  _161
REMARK   64  A    between atoms: _161  and  _162
REMARK   65  A    between atoms: _161  and  _164
REMARK   66  A    between atoms: _164  and  _165
REMARK   67  A    between atoms: _168  and  _170
REMARK   68  A    between atoms: _170  and  _171
REMARK   69  A    between atoms: _170  and  _173
REMARK   70  A    between atoms: _173  and  _174
REMARK   71  A    between atoms: _178  and  _179
REMARK   72  A    between atoms: _184  and  _186
REMARK   73  A    between atoms: _186  and  _187
REMARK   74  A    between atoms: _186  and  _189
REMARK   75  A    between atoms: _189  and  _190
REMARK   76  A    between atoms: _190  and  _191
REMARK   77  A    between atoms: _196  and  _198
REMARK   78  A    between atoms: _198  and  _199
REMARK   79  A    between atoms: _198  and  _201
REMARK   80  A    between atoms: _204  and  _206
REMARK   81  A    between atoms: _206  and  _207
REMARK   82  A    between atoms: _206  and  _209
REMARK   83  A    between atoms: _209  and  _210
REMARK   84  A    between atoms: _215  and  _216
REMARK   85  A    between atoms: _218  and  _220
REMARK   86  A    between atoms: _220  and  _221
REMARK   87  A    between atoms: _220  and  _223
REMARK   88  A    between atoms: _223  and  _224
REMARK   89  A    between atoms: _227  and  _229
REMARK   90  A    between atoms: _229  and  _230
REMARK   91  A    between atoms: _232  and  _234
REMARK   92  A    between atoms: _234  and  _235
REMARK   93  A    between atoms: _234  and  _237
REMARK   94  A    between atoms: _237  and  _238
REMARK   95  A    between atoms: _241  and  _243
REMARK   96  A    between atoms: _243  and  _244
REMARK   97  A    between atoms: _247  and  _249
REMARK   98  A    between atoms: _249  and  _250
REMARK   99  A    between atoms: _249  and  _252
REMARK  100  A    between atoms: _252  and  _253
REMARK  101  A    between atoms: _257  and  _258
REMARK  102  A    between atoms: _263  and  _265
REMARK  103  A    between atoms: _265  and  _266
REMARK  104  A    between atoms: _265  and  _268
REMARK  105  A    between atoms: _268  and  _269
REMARK  106  A    between atoms: _271  and  _273
REMARK  107  A    between atoms: _273  and  _274
REMARK  108  A    between atoms: _273  and  _276
REMARK  109  A    between atoms: _276  and  _277
REMARK  110  A    between atoms: _279  and  _281
REMARK  111  A    between atoms: _281  and  _282
REMARK  112  A    between atoms: _284  and  _286
REMARK  113  A    between atoms: _286  and  _287
REMARK  114  A    between atoms: _286  and  _289
REMARK  115  A    between atoms: _289  and  _290
REMARK  116  A    between atoms: _293  and  _295
REMARK  117  A    between atoms: _295  and  _296
REMARK  118  A    between atoms: _299  and  _301
REMARK  119  A    between atoms: _301  and  _302
REMARK  120  A    between atoms: _301  and  _304
REMARK  121  A    between atoms: _304  and  _305
REMARK  122  A    between atoms: _310  and  _311
REMARK  123  A    between atoms: _313  and  _315
REMARK  124  A    between atoms: _315  and  _316
REMARK  125  A    between atoms: _315  and  _318
REMARK  126  A    between atoms: _318  and  _319
REMARK  127  A    between atoms: _322  and  _324
REMARK  128  A    between atoms: _324  and  _325
REMARK  129  A    between atoms: _328  and  _330
REMARK  130  A    between atoms: _330  and  _331
REMARK  131  A    between atoms: _330  and  _333
REMARK  132  A    between atoms: _333  and  _334
REMARK  133  A    between atoms: _337  and  _339
REMARK  134  A    between atoms: _339  and  _340
REMARK  135  A    between atoms: _339  and  _342
REMARK  136  A    between atoms: _342  and  _343
REMARK  137  A    between atoms: _343  and  _344
REMARK  138  A    between atoms: _344  and  _345
REMARK  139  A    between atoms: _345  and  _346
REMARK  140  A    between atoms: _350  and  _352
REMARK  141  A    between atoms: _352  and  _353
REMARK  142  A    between atoms: _352  and  _355
REMARK  143  A    between atoms: _355  and  _356
REMARK  144  A    between atoms: _358  and  _360
REMARK  145  A    between atoms: _360  and  _361
REMARK  146  A    between atoms: _363  and  _365
REMARK  147  A    between atoms: _365  and  _366
REMARK  148  A    between atoms: _365  and  _368
REMARK  149  A    between atoms: _368  and  _369
REMARK  150  A    between atoms: _372  and  _374
REMARK  151  A    between atoms: _374  and  _375
REMARK  152  A    between atoms: _374  and  _377
REMARK  153  A    between atoms: _377  and  _378
REMARK  154  A    between atoms: _381  and  _383
REMARK  155  A    between atoms: _383  and  _384
REMARK  156  A    between atoms: _387  and  _389
REMARK  157  A    between atoms: _389  and  _390
REMARK  158  A    between atoms: _389  and  _392
REMARK  159  A    between atoms: _392  and  _393
REMARK  160  A    between atoms: _393  and  _394
REMARK  161  A    between atoms: _394  and  _395
REMARK  162  A    between atoms: _404  and  _406
REMARK  163  A    between atoms: _406  and  _407
REMARK  164  A    between atoms: _409  and  _411
REMARK  165  A    between atoms: _411  and  _412
REMARK  166  A    between atoms: _411  and  _414
REMARK  167  A    between atoms: _414  and  _415
REMARK  168  A    between atoms: _421  and  _423
REMARK  169  A    between atoms: _423  and  _424
REMARK  170  A    between atoms: _423  and  _426
REMARK  171  A    between atoms: _426  and  _427
REMARK  172  A    between atoms: _430  and  _432
REMARK  173  A    between atoms: _432  and  _433
REMARK  174  A    between atoms: _432  and  _435
REMARK  175  A    between atoms: _435  and  _436
REMARK  176  A    between atoms: _441  and  _443
REMARK  177  A    between atoms: _443  and  _444
REMARK  178  A    between atoms: _443  and  _446
REMARK  179  A    between atoms: _446  and  _447
REMARK  180  A    between atoms: _450  and  _452
REMARK  181  A    between atoms: _452  and  _453
REMARK  182  A    between atoms: _452  and  _455
REMARK  183  A    between atoms: _455  and  _456
REMARK  184  A    between atoms: _461  and  _462
REMARK  185  A    between atoms: _464  and  _466
REMARK  186  A    between atoms: _466  and  _467
REMARK  187  A    between atoms: _466  and  _469
REMARK  188  A    between atoms: _469  and  _470
REMARK  189  A    between atoms: _470  and  _471
REMARK  190  A    between atoms: _474  and  _476
REMARK  191  A    between atoms: _476  and  _477
REMARK  192  A    between atoms: _476  and  _479
REMARK  193  A    between atoms: _479  and  _480
REMARK  194  A    between atoms: _483  and  _485
REMARK  195  A    between atoms: _485  and  _486
REMARK  196  A    between atoms: _488  and  _490
REMARK  197  A    between atoms: _490  and  _491
REMARK  198  A    between atoms: _493  and  _495
REMARK  199  A    between atoms: _495  and  _496
REMARK  200  A    between atoms: _495  and  _498
REMARK  201  A    between atoms: _498  and  _499
REMARK  202  A    between atoms: _499  and  _500
REMARK  203  A    between atoms: _505  and  _507
REMARK  204  A    between atoms: _507  and  _508
REMARK  205  A    between atoms: _511  and  _513
REMARK  206  A    between atoms: _513  and  _514
REMARK  207  A    between atoms: _513  and  _516
REMARK  208  A    between atoms: _516  and  _517
REMARK  209  A    between atoms: _520  and  _522
REMARK  210  A    between atoms: _522  and  _523
REMARK  211  A    between atoms: _522  and  _525
REMARK  212  A    between atoms: _525  and  _526
REMARK  213  A    between atoms: _526  and  _527
REMARK  214  A    between atoms: _532  and  _534
REMARK  215  A    between atoms: _534  and  _535
REMARK  216  A    between atoms: _534  and  _537
REMARK  217  A    between atoms: _537  and  _538
REMARK  218  A    between atoms: _541  and  _543
REMARK  219  A    between atoms: _543  and  _544
REMARK  220  A    between atoms: _543  and  _546
REMARK  221  A    between atoms: _546  and  _547
REMARK  222  A    between atoms: _547  and  _548
REMARK  223  A    between atoms: _548  and  _549
REMARK                            x       y       z     vdW  Elec       q    Type
REMARK                         _______ _______ _______ _____ _____    ______ ____
ROOT
ATOM      1  C   TYR A   2      -4.735  29.422 -14.669  0.00  0.00    +0.241 C 
ATOM      2  N   GLY A   3      -4.835  29.642 -13.356  0.00  0.00    -0.295 N 
ATOM      3  H   GLY A   3      -4.423  30.511 -12.960  0.00  0.00    +0.150 HD
ATOM      4  O   TYR A   2      -5.153  28.402 -15.219  0.00  0.00    -0.273 OA
ENDROOT
BRANCH   2   5
ATOM      5  CA  GLY A   3      -5.500  28.710 -12.460  0.00  0.00    +0.176 C 
BRANCH   5   6
ATOM      6  C   GLY A   3      -4.616  27.546 -12.031  0.00  0.00    +0.243 C 
ATOM      7  N   GLY A   4      -5.196  26.601 -11.297  0.00  0.00    -0.295 N 
ATOM      8  H   GLY A   4      -6.226  26.619 -11.151  0.00  0.00    +0.150 HD
ATOM      9  O   GLY A   3      -3.435  27.482 -12.381  0.00  0.00    -0.273 OA
BRANCH   7  10
ATOM     10  CA  GLY A   4      -4.400  25.544 -10.698  0.00  0.00    +0.176 C 
BRANCH  10  11
ATOM     11  C   GLY A   4      -3.688  26.136  -9.506  0.00  0.00    +0.243 C 
ATOM     12  N   THR A   5      -2.933  25.313  -8.796  0.00  0.00    -0.295 N 
ATOM     13  H   THR A   5      -2.754  24.350  -9.145  0.00  0.00    +0.150 HD
ATOM     14  O   GLY A   4      -3.808  27.331  -9.229  0.00  0.00    -0.273 OA
BRANCH  12  15
ATOM     15  CA  THR A   5      -2.353  25.739  -7.537  0.00  0.00    +0.176 C 
BRANCH  15  16
ATOM     16  C   THR A   5      -1.089  26.573  -7.747  0.00  0.00    +0.243 C 
ATOM     17  N   LEU A   6      -0.740  27.373  -6.738  0.00  0.00    -0.298 N 
ATOM     18  H   LEU A   6      -1.290  27.359  -5.856  0.00  0.00    +0.150 HD
ATOM     19  O   THR A   5      -0.420  26.464  -8.789  0.00  0.00    -0.273 OA
BRANCH  17  20
ATOM     20  CA  LEU A   6       0.413  28.272  -6.862  0.00  0.00    +0.137 C 
BRANCH  20  21
ATOM     21  C   LEU A   6       1.757  27.549  -6.871  0.00  0.00    +0.227 C 
ATOM     22  O   LEU A   6       2.675  27.986  -7.568  0.00  0.00    -0.286 OA
ENDBRANCH  20  21
BRANCH  20  23
ATOM     23  CB  LEU A   6       0.415  29.314  -5.731  0.00  0.00    +0.028 C 
BRANCH  23  24
ATOM     24  CG  LEU A   6       1.518  30.389  -5.802  0.00  0.00    +0.002 C 
ATOM     25  CD2 LEU A   6       1.643  31.141  -4.474  0.00  0.00    +0.000 C 
ATOM     26  CD1 LEU A   6       1.262  31.367  -6.939  0.00  0.00    +0.000 C 
ENDBRANCH  23  24
ENDBRANCH  20  23
ENDBRANCH  17  20
ENDBRANCH  15  16
BRANCH  15  27
ATOM     27  CB  THR A   5      -1.998  24.544  -6.664  0.00  0.00    +0.137 C 
ATOM     28  CG2 THR A   5      -3.247  23.702  -6.394  0.00  0.00    +0.034 C 
BRANCH  27  29
ATOM     29  OG1 THR A   5      -0.996  23.768  -7.341  0.00  0.00    -0.382 OA
ATOM     30  HG1 THR A   5      -0.754  22.986  -6.784  0.00  0.00    +0.210 HD
ENDBRANCH  27  29
ENDBRANCH  15  27
ENDBRANCH  12  15
ENDBRANCH  10  11
ENDBRANCH   7  10
ENDBRANCH   5   6
ENDBRANCH   2   5
BRANCH   1  31
ATOM     31  CA  TYR A   2      -4.073  30.515 -15.490  0.00  0.00    +0.153 C 
BRANCH  31  34
ATOM     32  C   TRP A   1      -1.746  30.473 -16.222  0.00  0.00    +0.239 C 
ATOM     33  O   TRP A   1      -1.427  31.327 -15.397  0.00  0.00    -0.274 OA
ATOM     34  N   TYR A   2      -2.984  29.984 -16.315  0.00  0.00    -0.297 N 
ATOM     35  H   TYR A   2      -3.180  29.213 -16.985  0.00  0.00    +0.150 HD
BRANCH  32  36
ATOM     36  CA  TRP A   1      -0.708  29.973 -17.212  0.00  0.00    +0.149 C 
BRANCH  36  37
ATOM     37  N   TRP A   1      -0.324  31.143 -17.979  0.00  0.00    -0.238 NA
ATOM     38  H   TRP A   1       0.195  31.901 -17.492  0.00  0.00    +0.142 HD
ENDBRANCH  36  37
BRANCH  36  39
ATOM     39  CB  TRP A   1       0.519  29.395 -16.513  0.00  0.00    +0.054 C 
BRANCH  39  40
ATOM     40  CG  TRP A   1       0.332  28.130 -15.748  0.00  0.00    -0.002 A 
ATOM     41  CD2 TRP A   1       1.356  27.414 -15.057  0.00  0.00    +0.013 A 
ATOM     42  CE2 TRP A   1       0.756  26.284 -14.473  0.00  0.00    +0.056 A 
ATOM     43  CZ2 TRP A   1       1.485  25.357 -13.713  0.00  0.00    +0.017 A 
ATOM     44  CH2 TRP A   1       2.826  25.595 -13.541  0.00  0.00    +0.001 A 
ATOM     45  CZ3 TRP A   1       3.446  26.718 -14.102  0.00  0.00    +0.000 A 
ATOM     46  NE1 TRP A   1      -0.575  26.311 -14.799  0.00  0.00    -0.352 N 
ATOM     47  HE1 TRP A   1      -1.283  25.607 -14.509  0.00  0.00    +0.166 HD
ATOM     48  CE3 TRP A   1       2.725  27.635 -14.854  0.00  0.00    +0.001 A 
ATOM     49  CD1 TRP A   1      -0.821  27.423 -15.574  0.00  0.00    +0.068 A 
ENDBRANCH  39  40
ENDBRANCH  36  39
ENDBRANCH  32  36
ENDBRANCH  31  34
BRANCH  31  50
ATOM     50  CB  TYR A   2      -5.117  31.199 -16.381  0.00  0.00    +0.055 C 
BRANCH  50  51
ATOM     51  CG  TYR A   2      -6.340  31.754 -15.667  0.00  0.00    -0.020 A 
ATOM     52  CD2 TYR A   2      -6.215  32.730 -14.685  0.00  0.00    -0.001 A 
ATOM     53  CE2 TYR A   2      -7.327  33.253 -14.042  0.00  0.00    +0.036 A 
ATOM     54  CZ  TYR A   2      -8.590  32.820 -14.391  0.00  0.00    +0.134 A 
ATOM     55  CE1 TYR A   2      -8.755  31.861 -15.379  0.00  0.00    +0.036 A 
ATOM     56  CD1 TYR A   2      -7.627  31.335 -16.015  0.00  0.00    -0.001 A 
BRANCH  54  57
ATOM     57  OH  TYR A   2      -9.682  33.363 -13.759  0.00  0.00    -0.506 OA
ATOM     58  HH  TYR A   2      -9.378  34.025 -13.089  0.00  0.00    +0.292 HD
ENDBRANCH  54  57
ENDBRANCH  50  51
ENDBRANCH  31  50
ENDBRANCH   1  31
TORSDOF 21
REMARK  Name = ../refined-set-2016/4r74/4r74_pocket.pdb
REMARK  223 active torsions:
REMARK  status: ('A' for Active; 'I' for Inactive)
REMARK    1  A    between atoms: _1  and  _3
REMARK    2  A    between atoms: _3  and  _4
REMARK    3  A    between atoms: _3  and  _6
REMARK    4  A    between atoms: _6  and  _7
REMARK    5  A    between atoms: _9  and  _11
REMARK    6  A    between atoms: _11  and  _12
REMARK    7  A    between atoms: _15  and  _17
REMARK    8  A    between atoms: _17  and  _18
REMARK    9  A    between atoms: _17  and  _20
REMARK   10  A    between atoms: _20  and  _21
REMARK   11  A    between atoms: _24  and  _26
REMARK   12  A    between atoms: _26  and  _27
REMARK   13  A    between atoms: _26  and  _29
REMARK   14  A    between atoms: _29  and  _30
REMARK   15  A    between atoms: _35  and  _37
REMARK   16  A    between atoms: _37  and  _38
REMARK   17  A    between atoms: _37  and  _40
REMARK   18  A    between atoms: _40  and  _41
REMARK   19  A    between atoms: _41  and  _42
REMARK   20  A    between atoms: _44  and  _46
REMARK   21  A    between atoms: _46  and  _47
REMARK   22  A    between atoms: _46  and  _49
REMARK   23  A    between atoms: _49  and  _50
REMARK   24  A    between atoms: _50  and  _51
REMARK   25  A    between atoms: _51  and  _52
REMARK   26  A    between atoms: _61  and  _63
REMARK   27  A    between atoms: _63  and  _64
REMARK   28  A    between atoms: _63  and  _66
REMARK   29  A    between atoms: _66  and  _67
REMARK   30  A    between atoms: _72  and  _74
REMARK   31  A    between atoms: _74  and  _75
REMARK   32  A    between atoms: _77  and  _79
REMARK   33  A    between atoms: _79  and  _80
REMARK   34  A    between atoms: _79  and  _82
REMARK   35  A    between atoms: _82  and  _83
REMARK   36  A    between atoms: _85  and  _87
REMARK   37  A    between atoms: _87  and  _88
REMARK   38  A    between atoms: _90  and  _92
REMARK   39  A    between atoms: _92  and  _93
REMARK   40  A    between atoms: _92  and  _95
REMARK   41  A    between atoms: _95  and  _96
REMARK   42  A    between atoms: _98  and  _100
REMARK   43  A    between atoms: _100  and  _101
REMARK   44  A    between atoms: _100  and  _103
REMARK   45  A    between atoms: _103  and  _104
REMARK   46  A    between atoms: _107  and  _109
REMARK   47  A    between atoms: _109  and  _110
REMARK   48  A    between atoms: _109  and  _112
REMARK   49  A    between atoms: _112  and  _113
REMARK   50  A    between atoms: _119  and  _121
REMARK   51  A    between atoms: _121  and  _122
REMARK   52  A    between atoms: _121  and  _124
REMARK   53  A    between atoms: _124  and  _125
REMARK   54  A    between atoms: _135  and  _137
REMARK   55  A    between atoms: _137  and  _138
REMARK   56  A    between atoms: _137  and  _140
REMARK   57  A    between atoms: _140  and  _141
REMARK   58  A    between atoms: _146  and  _147
REMARK   59  A    between atoms: _149  and  _151
REMARK   60  A    between atoms: _151  and  _152
REMARK   61  A    between atoms: _154  and  _156
REMARK   62  A    between atoms: _156  and  _157
REMARK   63  A    between atoms: _159  and  _161
REMARK   64  A    between atoms: _161  and  _162
REMARK   65  A    between atoms: _161  and  _164
REMARK   66  A    between atoms: _164  and  _165
REMARK   67  A    between atoms: _168  and  _170
REMARK   68  A    between atoms: _170  and  _171
REMARK   69  A    between atoms: _170  and  _173
REMARK   70  A    between atoms: _173  and  _174
REMARK   71  A    between atoms: _178  and  _179
REMARK   72  A    between atoms: _184  and  _186
REMARK   73  A    between atoms: _186  and  _187
REMARK   74  A    between atoms: _186  and  _189
REMARK   75  A    between atoms: _189  and  _190
REMARK   76  A    between atoms: _190  and  _191
REMARK   77  A    between atoms: _196  and  _198
REMARK   78  A    between atoms: _198  and  _199
REMARK   79  A    between atoms: _198  and  _201
REMARK   80  A    between atoms: _204  and  _206
REMARK   81  A    between atoms: _206  and  _207
REMARK   82  A    between atoms: _206  and  _209
REMARK   83  A    between atoms: _209  and  _210
REMARK   84  A    between atoms: _215  and  _216
REMARK   85  A    between atoms: _218  and  _220
REMARK   86  A    between atoms: _220  and  _221
REMARK   87  A    between atoms: _220  and  _223
REMARK   88  A    between atoms: _223  and  _224
REMARK   89  A    between atoms: _227  and  _229
REMARK   90  A    between atoms: _229  and  _230
REMARK   91  A    between atoms: _232  and  _234
REMARK   92  A    between atoms: _234  and  _235
REMARK   93  A    between atoms: _234  and  _237
REMARK   94  A    between atoms: _237  and  _238
REMARK   95  A    between atoms: _241  and  _243
REMARK   96  A    between atoms: _243  and  _244
REMARK   97  A    between atoms: _247  and  _249
REMARK   98  A    between atoms: _249  and  _250
REMARK   99  A    between atoms: _249  and  _252
REMARK  100  A    between atoms: _252  and  _253
REMARK  101  A    between atoms: _257  and  _258
REMARK  102  A    between atoms: _263  and  _265
REMARK  103  A    between atoms: _265  and  _266
REMARK  104  A    between atoms: _265  and  _268
REMARK  105  A    between atoms: _268  and  _269
REMARK  106  A    between atoms: _271  and  _273
REMARK  107  A    between atoms: _273  and  _274
REMARK  108  A    between atoms: _273  and  _276
REMARK  109  A    between atoms: _276  and  _277
REMARK  110  A    between atoms: _279  and  _281
REMARK  111  A    between atoms: _281  and  _282
REMARK  112  A    between atoms: _284  and  _286
REMARK  113  A    between atoms: _286  and  _287
REMARK  114  A    between atoms: _286  and  _289
REMARK  115  A    between atoms: _289  and  _290
REMARK  116  A    between atoms: _293  and  _295
REMARK  117  A    between atoms: _295  and  _296
REMARK  118  A    between atoms: _299  and  _301
REMARK  119  A    between atoms: _301  and  _302
REMARK  120  A    between atoms: _301  and  _304
REMARK  121  A    between atoms: _304  and  _305
REMARK  122  A    between atoms: _310  and  _311
REMARK  123  A    between atoms: _313  and  _315
REMARK  124  A    between atoms: _315  and  _316
REMARK  125  A    between atoms: _315  and  _318
REMARK  126  A    between atoms: _318  and  _319
REMARK  127  A    between atoms: _322  and  _324
REMARK  128  A    between atoms: _324  and  _325
REMARK  129  A    between atoms: _328  and  _330
REMARK  130  A    between atoms: _330  and  _331
REMARK  131  A    between atoms: _330  and  _333
REMARK  132  A    between atoms: _333  and  _334
REMARK  133  A    between atoms: _337  and  _339
REMARK  134  A    between atoms: _339  and  _340
REMARK  135  A    between atoms: _339  and  _342
REMARK  136  A    between atoms: _342  and  _343
REMARK  137  A    between atoms: _343  and  _344
REMARK  138  A    between atoms: _344  and  _345
REMARK  139  A    between atoms: _345  and  _346
REMARK  140  A    between atoms: _350  and  _352
REMARK  141  A    between atoms: _352  and  _353
REMARK  142  A    between atoms: _352  and  _355
REMARK  143  A    between atoms: _355  and  _356
REMARK  144  A    between atoms: _358  and  _360
REMARK  145  A    between atoms: _360  and  _361
REMARK  146  A    between atoms: _363  and  _365
REMARK  147  A    between atoms: _365  and  _366
REMARK  148  A    between atoms: _365  and  _368
REMARK  149  A    between atoms: _368  and  _369
REMARK  150  A    between atoms: _372  and  _374
REMARK  151  A    between atoms: _374  and  _375
REMARK  152  A    between atoms: _374  and  _377
REMARK  153  A    between atoms: _377  and  _378
REMARK  154  A    between atoms: _381  and  _383
REMARK  155  A    between atoms: _383  and  _384
REMARK  156  A    between atoms: _387  and  _389
REMARK  157  A    between atoms: _389  and  _390
REMARK  158  A    between atoms: _389  and  _392
REMARK  159  A    between atoms: _392  and  _393
REMARK  160  A    between atoms: _393  and  _394
REMARK  161  A    between atoms: _394  and  _395
REMARK  162  A    between atoms: _404  and  _406
REMARK  163  A    between atoms: _406  and  _407
REMARK  164  A    between atoms: _409  and  _411
REMARK  165  A    between atoms: _411  and  _412
REMARK  166  A    between atoms: _411  and  _414
REMARK  167  A    between atoms: _414  and  _415
REMARK  168  A    between atoms: _421  and  _423
REMARK  169  A    between atoms: _423  and  _424
REMARK  170  A    between atoms: _423  and  _426
REMARK  171  A    between atoms: _426  and  _427
REMARK  172  A    between atoms: _430  and  _432
REMARK  173  A    between atoms: _432  and  _433
REMARK  174  A    between atoms: _432  and  _435
REMARK  175  A    between atoms: _435  and  _436
REMARK  176  A    between atoms: _441  and  _443
REMARK  177  A    between atoms: _443  and  _444
REMARK  178  A    between atoms: _443  and  _446
REMARK  179  A    between atoms: _446  and  _447
REMARK  180  A    between atoms: _450  and  _452
REMARK  181  A    between atoms: _452  and  _453
REMARK  182  A    between atoms: _452  and  _455
REMARK  183  A    between atoms: _455  and  _456
REMARK  184  A    between atoms: _461  and  _462
REMARK  185  A    between atoms: _464  and  _466
REMARK  186  A    between atoms: _466  and  _467
REMARK  187  A    between atoms: _466  and  _469
REMARK  188  A    between atoms: _469  and  _470
REMARK  189  A    between atoms: _470  and  _471
REMARK  190  A    between atoms: _474  and  _476
REMARK  191  A    between atoms: _476  and  _477
REMARK  192  A    between atoms: _476  and  _479
REMARK  193  A    between atoms: _479  and  _480
REMARK  194  A    between atoms: _483  and  _485
REMARK  195  A    between atoms: _485  and  _486
REMARK  196  A    between atoms: _488  and  _490
REMARK  197  A    between atoms: _490  and  _491
REMARK  198  A    between atoms: _493  and  _495
REMARK  199  A    between atoms: _495  and  _496
REMARK  200  A    between atoms: _495  and  _498
REMARK  201  A    between atoms: _498  and  _499
REMARK  202  A    between atoms: _499  and  _500
REMARK  203  A    between atoms: _505  and  _507
REMARK  204  A    between atoms: _507  and  _508
REMARK  205  A    between atoms: _511  and  _513
REMARK  206  A    between atoms: _513  and  _514
REMARK  207  A    between atoms: _513  and  _516
REMARK  208  A    between atoms: _516  and  _517
REMARK  209  A    between atoms: _520  and  _522
REMARK  210  A    between atoms: _522  and  _523
REMARK  211  A    between atoms: _522  and  _525
REMARK  212  A    between atoms: _525  and  _526
REMARK  213  A    between atoms: _526  and  _527
REMARK  214  A    between atoms: _532  and  _534
REMARK  215  A    between atoms: _534  and  _535
REMARK  216  A    between atoms: _534  and  _537
REMARK  217  A    between atoms: _537  and  _538
REMARK  218  A    between atoms: _541  and  _543
REMARK  219  A    between atoms: _543  and  _544
REMARK  220  A    between atoms: _543  and  _546
REMARK  221  A    between atoms: _546  and  _547
REMARK  222  A    between atoms: _547  and  _548
REMARK  223  A    between atoms: _548  and  _549
REMARK                            x       y       z     vdW  Elec       q    Type
REMARK                         _______ _______ _______ _____ _____    ______ ____
ROOT
ATOM      1  CA  GLN A   2       3.884  28.218 -10.766  0.00  0.00    +0.137 C 
ENDROOT
BRANCH   1   3
ATOM      2  C   PRO A   1       4.390  25.910 -10.204  0.00  0.00    +0.239 C 
ATOM      3  N   GLN A   2       3.565  26.952 -10.106  0.00  0.00    -0.298 N 
ATOM      4  H   GLN A   2       2.687  26.864  -9.556  0.00  0.00    +0.150 HD
ATOM      5  O   PRO A   1       5.429  25.922 -10.875  0.00  0.00    -0.274 OA
BRANCH   2  10
ATOM      6  N   PRO A   1       3.296  24.926  -8.179  0.00  0.00    -0.210 NA
ATOM      7  CD  PRO A   1       1.944  24.338  -8.198  0.00  0.00    +0.089 C 
ATOM      8  CG  PRO A   1       2.042  23.281  -9.249  0.00  0.00    +0.021 C 
ATOM      9  CB  PRO A   1       3.031  23.796 -10.241  0.00  0.00    +0.028 C 
ATOM     10  CA  PRO A   1       4.022  24.647  -9.427  0.00  0.00    +0.149 C 
ENDBRANCH   2  10
ENDBRANCH   1   3
BRANCH   1  11
ATOM     11  C   GLN A   2       5.065  28.889 -10.054  0.00  0.00    +0.227 C 
ATOM     12  O   GLN A   2       5.951  29.434 -10.706  0.00  0.00    -0.286 OA
ENDBRANCH   1  11
BRANCH   1  13
ATOM     13  CB  GLN A   2       2.661  29.136 -10.811  0.00  0.00    +0.037 C 
BRANCH  13  14
ATOM     14  CG  GLN A   2       1.519  28.524 -11.619  0.00  0.00    +0.087 C 
BRANCH  14  15
ATOM     15  CD  GLN A   2       0.383  29.496 -11.913  0.00  0.00    +0.219 C 
ATOM     16  OE1 GLN A   2       0.564  30.721 -11.915  0.00  0.00    -0.275 OA
ATOM     17  NE2 GLN A   2      -0.805  28.944 -12.172  0.00  0.00    -0.329 N 
ATOM     18 HE21 GLN A   2      -0.912  27.910 -12.159  0.00  0.00    +0.145 HD
ATOM     19 HE22 GLN A   2      -1.624  29.549 -12.386  0.00  0.00    +0.145 HD
ENDBRANCH  14  15
ENDBRANCH  13  14
ENDBRANCH   1  13
TORSDOF 6
REMARK  Name = ../refined-set-2016/4r74/4r74_pocket.pdb
REMARK  223 active torsions:
REMARK  status: ('A' for Active; 'I' for Inactive)
REMARK    1  A    between atoms: _1  and  _3
REMARK    2  A    between atoms: _3  and  _4
REMARK    3  A    between atoms: _3  and  _6
REMARK    4  A    between atoms: _6  and  _7
REMARK    5  A    between atoms: _9  and  _11
REMARK    6  A    between atoms: _11  and  _12
REMARK    7  A    between atoms: _15  and  _17
REMARK    8  A    between atoms: _17  and  _18
REMARK    9  A    between atoms: _17  and  _20
REMARK   10  A    between atoms: _20  and  _21
REMARK   11  A    between atoms: _24  and  _26
REMARK   12  A    between atoms: _26  and  _27
REMARK   13  A    between atoms: _26  and  _29
REMARK   14  A    between atoms: _29  and  _30
REMARK   15  A    between atoms: _35  and  _37
REMARK   16  A    between atoms: _37  and  _38
REMARK   17  A    between atoms: _37  and  _40
REMARK   18  A    between atoms: _40  and  _41
REMARK   19  A    between atoms: _41  and  _42
REMARK   20  A    between atoms: _44  and  _46
REMARK   21  A    between atoms: _46  and  _47
REMARK   22  A    between atoms: _46  and  _49
REMARK   23  A    between atoms: _49  and  _50
REMARK   24  A    between atoms: _50  and  _51
REMARK   25  A    between atoms: _51  and  _52
REMARK   26  A    between atoms: _61  and  _63
REMARK   27  A    between atoms: _63  and  _64
REMARK   28  A    between atoms: _63  and  _66
REMARK   29  A    between atoms: _66  and  _67
REMARK   30  A    between atoms: _72  and  _74
REMARK   31  A    between atoms: _74  and  _75
REMARK   32  A    between atoms: _77  and  _79
REMARK   33  A    between atoms: _79  and  _80
REMARK   34  A    between atoms: _79  and  _82
REMARK   35  A    between atoms: _82  and  _83
REMARK   36  A    between atoms: _85  and  _87
REMARK   37  A    between atoms: _87  and  _88
REMARK   38  A    between atoms: _90  and  _92
REMARK   39  A    between atoms: _92  and  _93
REMARK   40  A    between atoms: _92  and  _95
REMARK   41  A    between atoms: _95  and  _96
REMARK   42  A    between atoms: _98  and  _100
REMARK   43  A    between atoms: _100  and  _101
REMARK   44  A    between atoms: _100  and  _103
REMARK   45  A    between atoms: _103  and  _104
REMARK   46  A    between atoms: _107  and  _109
REMARK   47  A    between atoms: _109  and  _110
REMARK   48  A    between atoms: _109  and  _112
REMARK   49  A    between atoms: _112  and  _113
REMARK   50  A    between atoms: _119  and  _121
REMARK   51  A    between atoms: _121  and  _122
REMARK   52  A    between atoms: _121  and  _124
REMARK   53  A    between atoms: _124  and  _125
REMARK   54  A    between atoms: _135  and  _137
REMARK   55  A    between atoms: _137  and  _138
REMARK   56  A    between atoms: _137  and  _140
REMARK   57  A    between atoms: _140  and  _141
REMARK   58  A    between atoms: _146  and  _147
REMARK   59  A    between atoms: _149  and  _151
REMARK   60  A    between atoms: _151  and  _152
REMARK   61  A    between atoms: _154  and  _156
REMARK   62  A    between atoms: _156  and  _157
REMARK   63  A    between atoms: _159  and  _161
REMARK   64  A    between atoms: _161  and  _162
REMARK   65  A    between atoms: _161  and  _164
REMARK   66  A    between atoms: _164  and  _165
REMARK   67  A    between atoms: _168  and  _170
REMARK   68  A    between atoms: _170  and  _171
REMARK   69  A    between atoms: _170  and  _173
REMARK   70  A    between atoms: _173  and  _174
REMARK   71  A    between atoms: _178  and  _179
REMARK   72  A    between atoms: _184  and  _186
REMARK   73  A    between atoms: _186  and  _187
REMARK   74  A    between atoms: _186  and  _189
REMARK   75  A    between atoms: _189  and  _190
REMARK   76  A    between atoms: _190  and  _191
REMARK   77  A    between atoms: _196  and  _198
REMARK   78  A    between atoms: _198  and  _199
REMARK   79  A    between atoms: _198  and  _201
REMARK   80  A    between atoms: _204  and  _206
REMARK   81  A    between atoms: _206  and  _207
REMARK   82  A    between atoms: _206  and  _209
REMARK   83  A    between atoms: _209  and  _210
REMARK   84  A    between atoms: _215  and  _216
REMARK   85  A    between atoms: _218  and  _220
REMARK   86  A    between atoms: _220  and  _221
REMARK   87  A    between atoms: _220  and  _223
REMARK   88  A    between atoms: _223  and  _224
REMARK   89  A    between atoms: _227  and  _229
REMARK   90  A    between atoms: _229  and  _230
REMARK   91  A    between atoms: _232  and  _234
REMARK   92  A    between atoms: _234  and  _235
REMARK   93  A    between atoms: _234  and  _237
REMARK   94  A    between atoms: _237  and  _238
REMARK   95  A    between atoms: _241  and  _243
REMARK   96  A    between atoms: _243  and  _244
REMARK   97  A    between atoms: _247  and  _249
REMARK   98  A    between atoms: _249  and  _250
REMARK   99  A    between atoms: _249  and  _252
REMARK  100  A    between atoms: _252  and  _253
REMARK  101  A    between atoms: _257  and  _258
REMARK  102  A    between atoms: _263  and  _265
REMARK  103  A    between atoms: _265  and  _266
REMARK  104  A    between atoms: _265  and  _268
REMARK  105  A    between atoms: _268  and  _269
REMARK  106  A    between atoms: _271  and  _273
REMARK  107  A    between atoms: _273  and  _274
REMARK  108  A    between atoms: _273  and  _276
REMARK  109  A    between atoms: _276  and  _277
REMARK  110  A    between atoms: _279  and  _281
REMARK  111  A    between atoms: _281  and  _282
REMARK  112  A    between atoms: _284  and  _286
REMARK  113  A    between atoms: _286  and  _287
REMARK  114  A    between atoms: _286  and  _289
REMARK  115  A    between atoms: _289  and  _290
REMARK  116  A    between atoms: _293  and  _295
REMARK  117  A    between atoms: _295  and  _296
REMARK  118  A    between atoms: _299  and  _301
REMARK  119  A    between atoms: _301  and  _302
REMARK  120  A    between atoms: _301  and  _304
REMARK  121  A    between atoms: _304  and  _305
REMARK  122  A    between atoms: _310  and  _311
REMARK  123  A    between atoms: _313  and  _315
REMARK  124  A    between atoms: _315  and  _316
REMARK  125  A    between atoms: _315  and  _318
REMARK  126  A    between atoms: _318  and  _319
REMARK  127  A    between atoms: _322  and  _324
REMARK  128  A    between atoms: _324  and  _325
REMARK  129  A    between atoms: _328  and  _330
REMARK  130  A    between atoms: _330  and  _331
REMARK  131  A    between atoms: _330  and  _333
REMARK  132  A    between atoms: _333  and  _334
REMARK  133  A    between atoms: _337  and  _339
REMARK  134  A    between atoms: _339  and  _340
REMARK  135  A    between atoms: _339  and  _342
REMARK  136  A    between atoms: _342  and  _343
REMARK  137  A    between atoms: _343  and  _344
REMARK  138  A    between atoms: _344  and  _345
REMARK  139  A    between atoms: _345  and  _346
REMARK  140  A    between atoms: _350  and  _352
REMARK  141  A    between atoms: _352  and  _353
REMARK  142  A    between atoms: _352  and  _355
REMARK  143  A    between atoms: _355  and  _356
REMARK  144  A    between atoms: _358  and  _360
REMARK  145  A    between atoms: _360  and  _361
REMARK  146  A    between atoms: _363  and  _365
REMARK  147  A    between atoms: _365  and  _366
REMARK  148  A    between atoms: _365  and  _368
REMARK  149  A    between atoms: _368  and  _369
REMARK  150  A    between atoms: _372  and  _374
REMARK  151  A    between atoms: _374  and  _375
REMARK  152  A    between atoms: _374  and  _377
REMARK  153  A    between atoms: _377  and  _378
REMARK  154  A    between atoms: _381  and  _383
REMARK  155  A    between atoms: _383  and  _384
REMARK  156  A    between atoms: _387  and  _389
REMARK  157  A    between atoms: _389  and  _390
REMARK  158  A    between atoms: _389  and  _392
REMARK  159  A    between atoms: _392  and  _393
REMARK  160  A    between atoms: _393  and  _394
REMARK  161  A    between atoms: _394  and  _395
REMARK  162  A    between atoms: _404  and  _406
REMARK  163  A    between atoms: _406  and  _407
REMARK  164  A    between atoms: _409  and  _411
REMARK  165  A    between atoms: _411  and  _412
REMARK  166  A    between atoms: _411  and  _414
REMARK  167  A    between atoms: _414  and  _415
REMARK  168  A    between atoms: _421  and  _423
REMARK  169  A    between atoms: _423  and  _424
REMARK  170  A    between atoms: _423  and  _426
REMARK  171  A    between atoms: _426  and  _427
REMARK  172  A    between atoms: _430  and  _432
REMARK  173  A    between atoms: _432  and  _433
REMARK  174  A    between atoms: _432  and  _435
REMARK  175  A    between atoms: _435  and  _436
REMARK  176  A    between atoms: _441  and  _443
REMARK  177  A    between atoms: _443  and  _444
REMARK  178  A    between atoms: _443  and  _446
REMARK  179  A    between atoms: _446  and  _447
REMARK  180  A    between atoms: _450  and  _452
REMARK  181  A    between atoms: _452  and  _453
REMARK  182  A    between atoms: _452  and  _455
REMARK  183  A    between atoms: _455  and  _456
REMARK  184  A    between atoms: _461  and  _462
REMARK  185  A    between atoms: _464  and  _466
REMARK  186  A    between atoms: _466  and  _467
REMARK  187  A    between atoms: _466  and  _469
REMARK  188  A    between atoms: _469  and  _470
REMARK  189  A    between atoms: _470  and  _471
REMARK  190  A    between atoms: _474  and  _476
REMARK  191  A    between atoms: _476  and  _477
REMARK  192  A    between atoms: _476  and  _479
REMARK  193  A    between atoms: _479  and  _480
REMARK  194  A    between atoms: _483  and  _485
REMARK  195  A    between atoms: _485  and  _486
REMARK  196  A    between atoms: _488  and  _490
REMARK  197  A    between atoms: _490  and  _491
REMARK  198  A    between atoms: _493  and  _495
REMARK  199  A    between atoms: _495  and  _496
REMARK  200  A    between atoms: _495  and  _498
REMARK  201  A    between atoms: _498  and  _499
REMARK  202  A    between atoms: _499  and  _500
REMARK  203  A    between atoms: _505  and  _507
REMARK  204  A    between atoms: _507  and  _508
REMARK  205  A    between atoms: _511  and  _513
REMARK  206  A    between atoms: _513  and  _514
REMARK  207  A    between atoms: _513  and  _516
REMARK  208  A    between atoms: _516  and  _517
REMARK  209  A    between atoms: _520  and  _522
REMARK  210  A    between atoms: _522  and  _523
REMARK  211  A    between atoms: _522  and  _525
REMARK  212  A    between atoms: _525  and  _526
REMARK  213  A    between atoms: _526  and  _527
REMARK  214  A    between atoms: _532  and  _534
REMARK  215  A    between atoms: _534  and  _535
REMARK  216  A    between atoms: _534  and  _537
REMARK  217  A    between atoms: _537  and  _538
REMARK  218  A    between atoms: _541  and  _543
REMARK  219  A    between atoms: _543  and  _544
REMARK  220  A    between atoms: _543  and  _546
REMARK  221  A    between atoms: _546  and  _547
REMARK  222  A    between atoms: _547  and  _548
REMARK  223  A    between atoms: _548  and  _549
REMARK                            x       y       z     vdW  Elec       q    Type
REMARK                         _______ _______ _______ _____ _____    ______ ____
ROOT
ATOM      1  C   TYR A   2      -7.602  32.055  -4.641  0.00  0.00    +0.241 C 
ATOM      2  N   ILE A   3      -8.476  31.632  -3.734  0.00  0.00    -0.297 N 
ATOM      3  H   ILE A   3      -9.476  31.894  -3.845  0.00  0.00    +0.150 HD
ATOM      4  O   TYR A   2      -6.393  31.817  -4.588  0.00  0.00    -0.273 OA
ENDROOT
BRANCH   2   5
ATOM      5  CA  ILE A   3      -8.090  30.814  -2.588  0.00  0.00    +0.149 C 
BRANCH   5   6
ATOM      6  C   ILE A   3      -8.992  29.596  -2.517  0.00  0.00    +0.241 C 
ATOM      7  N   GLY A   4      -8.424  28.419  -2.261  0.00  0.00    -0.295 N 
ATOM      8  H   GLY A   4      -7.392  28.358  -2.144  0.00  0.00    +0.150 HD
ATOM      9  O   ILE A   3     -10.206  29.725  -2.678  0.00  0.00    -0.273 OA
BRANCH   7  10
ATOM     10  CA  GLY A   4      -9.233  27.221  -2.144  0.00  0.00    +0.176 C 
BRANCH  10  11
ATOM     11  C   GLY A   4      -8.867  26.471  -0.875  0.00  0.00    +0.243 C 
ATOM     12  N   ILE A   5      -9.860  26.054  -0.098  0.00  0.00    -0.298 N 
ATOM     13  H   ILE A   5     -10.844  26.201  -0.400  0.00  0.00    +0.150 HD
ATOM     14  O   GLY A   4      -7.693  26.269  -0.603  0.00  0.00    -0.273 OA
BRANCH  12  15
ATOM     15  CA  ILE A   5      -9.586  25.391   1.177  0.00  0.00    +0.137 C 
BRANCH  15  16
ATOM     16  CB  ILE A   5     -10.712  25.676   2.205  0.00  0.00    +0.026 C 
ATOM     17  CG2 ILE A   5     -10.379  25.067   3.586  0.00  0.00    +0.002 C 
BRANCH  16  18
ATOM     18  CG1 ILE A   5     -11.012  27.182   2.291  0.00  0.00    +0.002 C 
ATOM     19  CD1 ILE A   5      -9.835  28.054   2.753  0.00  0.00    +0.000 C 
ENDBRANCH  16  18
ENDBRANCH  15  16
BRANCH  15  20
ATOM     20  C   ILE A   5      -9.437  23.885   1.021  0.00  0.00    +0.227 C 
ATOM     21  O   ILE A   5     -10.320  23.228   0.478  0.00  0.00    -0.286 OA
ENDBRANCH  15  20
ENDBRANCH  12  15
ENDBRANCH  10  11
ENDBRANCH   7  10
ENDBRANCH   5   6
BRANCH   5  22
ATOM     22  CB  ILE A   3      -8.208  31.612  -1.276  0.00  0.00    +0.027 C 
ATOM     23  CG2 ILE A   3      -7.682  30.819  -0.099  0.00  0.00    +0.002 C 
BRANCH  22  24
ATOM     24  CG1 ILE A   3      -7.495  32.959  -1.410  0.00  0.00    +0.002 C 
ATOM     25  CD1 ILE A   3      -8.017  34.016  -0.466  0.00  0.00    +0.000 C 
ENDBRANCH  22  24
ENDBRANCH   5  22
ENDBRANCH   2   5
BRANCH   1  26
ATOM     26  CA  TYR A   2      -8.182  32.885  -5.766  0.00  0.00    +0.153 C 
BRANCH  26  28
ATOM     27  C   VAL A   1      -7.403  34.441  -7.455  0.00  0.00    +0.238 C 
ATOM     28  N   TYR A   2      -7.146  33.414  -6.641  0.00  0.00    -0.297 N 
ATOM     29  H   TYR A   2      -6.197  32.988  -6.632  0.00  0.00    +0.150 HD
ATOM     30  O   VAL A   1      -8.525  34.923  -7.583  0.00  0.00    -0.274 OA
BRANCH  27  31
ATOM     31  CA  VAL A   1      -6.250  34.998  -8.269  0.00  0.00    +0.145 C 
BRANCH  31  32
ATOM     32  CB  VAL A   1      -6.451  34.571  -9.737  0.00  0.00    +0.025 C 
ATOM     33  CG2 VAL A   1      -6.126  33.075  -9.925  0.00  0.00    +0.002 C 
ATOM     34  CG1 VAL A   1      -5.589  35.430 -10.659  0.00  0.00    +0.002 C 
ENDBRANCH  31  32
BRANCH  31  35
ATOM     35  N   VAL A   1      -4.935  34.603  -7.765  0.00  0.00    -0.238 NA
ATOM     36  H   VAL A   1      -4.588  33.636  -7.927  0.00  0.00    +0.142 HD
ENDBRANCH  31  35
ENDBRANCH  27  31
ENDBRANCH  26  28
BRANCH  26  37
ATOM     37  CB  TYR A   2      -9.226  32.056  -6.553  0.00  0.00    +0.055 C 
BRANCH  37  38
ATOM     38  CG  TYR A   2      -8.739  30.864  -7.354  0.00  0.00    -0.020 A 
ATOM     39  CD2 TYR A   2      -8.284  29.699  -6.734  0.00  0.00    -0.001 A 
ATOM     40  CE2 TYR A   2      -7.871  28.577  -7.498  0.00  0.00    +0.036 A 
ATOM     41  CZ  TYR A   2      -7.938  28.628  -8.878  0.00  0.00    +0.134 A 
ATOM     42  CE1 TYR A   2      -8.418  29.768  -9.510  0.00  0.00    +0.036 A 
ATOM     43  CD1 TYR A   2      -8.821  30.869  -8.754  0.00  0.00    -0.001 A 
BRANCH  41  44
ATOM     44  OH  TYR A   2      -7.543  27.547  -9.652  0.00  0.00    -0.506 OA
ATOM     45  HH  TYR A   2      -7.228  26.818  -9.062  0.00  0.00    +0.292 HD
ENDBRANCH  41  44
ENDBRANCH  37  38
ENDBRANCH  26  37
ENDBRANCH   1  26
TORSDOF 18
REMARK  Name = ../refined-set-2016/4r74/4r74_pocket.pdb
REMARK  223 active torsions:
REMARK  status: ('A' for Active; 'I' for Inactive)
REMARK    1  A    between atoms: _1  and  _3
REMARK    2  A    between atoms: _3  and  _4
REMARK    3  A    between atoms: _3  and  _6
REMARK    4  A    between atoms: _6  and  _7
REMARK    5  A    between atoms: _9  and  _11
REMARK    6  A    between atoms: _11  and  _12
REMARK    7  A    between atoms: _15  and  _17
REMARK    8  A    between atoms: _17  and  _18
REMARK    9  A    between atoms: _17  and  _20
REMARK   10  A    between atoms: _20  and  _21
REMARK   11  A    between atoms: _24  and  _26
REMARK   12  A    between atoms: _26  and  _27
REMARK   13  A    between atoms: _26  and  _29
REMARK   14  A    between atoms: _29  and  _30
REMARK   15  A    between atoms: _35  and  _37
REMARK   16  A    between atoms: _37  and  _38
REMARK   17  A    between atoms: _37  and  _40
REMARK   18  A    between atoms: _40  and  _41
REMARK   19  A    between atoms: _41  and  _42
REMARK   20  A    between atoms: _44  and  _46
REMARK   21  A    between atoms: _46  and  _47
REMARK   22  A    between atoms: _46  and  _49
REMARK   23  A    between atoms: _49  and  _50
REMARK   24  A    between atoms: _50  and  _51
REMARK   25  A    between atoms: _51  and  _52
REMARK   26  A    between atoms: _61  and  _63
REMARK   27  A    between atoms: _63  and  _64
REMARK   28  A    between atoms: _63  and  _66
REMARK   29  A    between atoms: _66  and  _67
REMARK   30  A    between atoms: _72  and  _74
REMARK   31  A    between atoms: _74  and  _75
REMARK   32  A    between atoms: _77  and  _79
REMARK   33  A    between atoms: _79  and  _80
REMARK   34  A    between atoms: _79  and  _82
REMARK   35  A    between atoms: _82  and  _83
REMARK   36  A    between atoms: _85  and  _87
REMARK   37  A    between atoms: _87  and  _88
REMARK   38  A    between atoms: _90  and  _92
REMARK   39  A    between atoms: _92  and  _93
REMARK   40  A    between atoms: _92  and  _95
REMARK   41  A    between atoms: _95  and  _96
REMARK   42  A    between atoms: _98  and  _100
REMARK   43  A    between atoms: _100  and  _101
REMARK   44  A    between atoms: _100  and  _103
REMARK   45  A    between atoms: _103  and  _104
REMARK   46  A    between atoms: _107  and  _109
REMARK   47  A    between atoms: _109  and  _110
REMARK   48  A    between atoms: _109  and  _112
REMARK   49  A    between atoms: _112  and  _113
REMARK   50  A    between atoms: _119  and  _121
REMARK   51  A    between atoms: _121  and  _122
REMARK   52  A    between atoms: _121  and  _124
REMARK   53  A    between atoms: _124  and  _125
REMARK   54  A    between atoms: _135  and  _137
REMARK   55  A    between atoms: _137  and  _138
REMARK   56  A    between atoms: _137  and  _140
REMARK   57  A    between atoms: _140  and  _141
REMARK   58  A    between atoms: _146  and  _147
REMARK   59  A    between atoms: _149  and  _151
REMARK   60  A    between atoms: _151  and  _152
REMARK   61  A    between atoms: _154  and  _156
REMARK   62  A    between atoms: _156  and  _157
REMARK   63  A    between atoms: _159  and  _161
REMARK   64  A    between atoms: _161  and  _162
REMARK   65  A    between atoms: _161  and  _164
REMARK   66  A    between atoms: _164  and  _165
REMARK   67  A    between atoms: _168  and  _170
REMARK   68  A    between atoms: _170  and  _171
REMARK   69  A    between atoms: _170  and  _173
REMARK   70  A    between atoms: _173  and  _174
REMARK   71  A    between atoms: _178  and  _179
REMARK   72  A    between atoms: _184  and  _186
REMARK   73  A    between atoms: _186  and  _187
REMARK   74  A    between atoms: _186  and  _189
REMARK   75  A    between atoms: _189  and  _190
REMARK   76  A    between atoms: _190  and  _191
REMARK   77  A    between atoms: _196  and  _198
REMARK   78  A    between atoms: _198  and  _199
REMARK   79  A    between atoms: _198  and  _201
REMARK   80  A    between atoms: _204  and  _206
REMARK   81  A    between atoms: _206  and  _207
REMARK   82  A    between atoms: _206  and  _209
REMARK   83  A    between atoms: _209  and  _210
REMARK   84  A    between atoms: _215  and  _216
REMARK   85  A    between atoms: _218  and  _220
REMARK   86  A    between atoms: _220  and  _221
REMARK   87  A    between atoms: _220  and  _223
REMARK   88  A    between atoms: _223  and  _224
REMARK   89  A    between atoms: _227  and  _229
REMARK   90  A    between atoms: _229  and  _230
REMARK   91  A    between atoms: _232  and  _234
REMARK   92  A    between atoms: _234  and  _235
REMARK   93  A    between atoms: _234  and  _237
REMARK   94  A    between atoms: _237  and  _238
REMARK   95  A    between atoms: _241  and  _243
REMARK   96  A    between atoms: _243  and  _244
REMARK   97  A    between atoms: _247  and  _249
REMARK   98  A    between atoms: _249  and  _250
REMARK   99  A    between atoms: _249  and  _252
REMARK  100  A    between atoms: _252  and  _253
REMARK  101  A    between atoms: _257  and  _258
REMARK  102  A    between atoms: _263  and  _265
REMARK  103  A    between atoms: _265  and  _266
REMARK  104  A    between atoms: _265  and  _268
REMARK  105  A    between atoms: _268  and  _269
REMARK  106  A    between atoms: _271  and  _273
REMARK  107  A    between atoms: _273  and  _274
REMARK  108  A    between atoms: _273  and  _276
REMARK  109  A    between atoms: _276  and  _277
REMARK  110  A    between atoms: _279  and  _281
REMARK  111  A    between atoms: _281  and  _282
REMARK  112  A    between atoms: _284  and  _286
REMARK  113  A    between atoms: _286  and  _287
REMARK  114  A    between atoms: _286  and  _289
REMARK  115  A    between atoms: _289  and  _290
REMARK  116  A    between atoms: _293  and  _295
REMARK  117  A    between atoms: _295  and  _296
REMARK  118  A    between atoms: _299  and  _301
REMARK  119  A    between atoms: _301  and  _302
REMARK  120  A    between atoms: _301  and  _304
REMARK  121  A    between atoms: _304  and  _305
REMARK  122  A    between atoms: _310  and  _311
REMARK  123  A    between atoms: _313  and  _315
REMARK  124  A    between atoms: _315  and  _316
REMARK  125  A    between atoms: _315  and  _318
REMARK  126  A    between atoms: _318  and  _319
REMARK  127  A    between atoms: _322  and  _324
REMARK  128  A    between atoms: _324  and  _325
REMARK  129  A    between atoms: _328  and  _330
REMARK  130  A    between atoms: _330  and  _331
REMARK  131  A    between atoms: _330  and  _333
REMARK  132  A    between atoms: _333  and  _334
REMARK  133  A    between atoms: _337  and  _339
REMARK  134  A    between atoms: _339  and  _340
REMARK  135  A    between atoms: _339  and  _342
REMARK  136  A    between atoms: _342  and  _343
REMARK  137  A    between atoms: _343  and  _344
REMARK  138  A    between atoms: _344  and  _345
REMARK  139  A    between atoms: _345  and  _346
REMARK  140  A    between atoms: _350  and  _352
REMARK  141  A    between atoms: _352  and  _353
REMARK  142  A    between atoms: _352  and  _355
REMARK  143  A    between atoms: _355  and  _356
REMARK  144  A    between atoms: _358  and  _360
REMARK  145  A    between atoms: _360  and  _361
REMARK  146  A    between atoms: _363  and  _365
REMARK  147  A    between atoms: _365  and  _366
REMARK  148  A    between atoms: _365  and  _368
REMARK  149  A    between atoms: _368  and  _369
REMARK  150  A    between atoms: _372  and  _374
REMARK  151  A    between atoms: _374  and  _375
REMARK  152  A    between atoms: _374  and  _377
REMARK  153  A    between atoms: _377  and  _378
REMARK  154  A    between atoms: _381  and  _383
REMARK  155  A    between atoms: _383  and  _384
REMARK  156  A    between atoms: _387  and  _389
REMARK  157  A    between atoms: _389  and  _390
REMARK  158  A    between atoms: _389  and  _392
REMARK  159  A    between atoms: _392  and  _393
REMARK  160  A    between atoms: _393  and  _394
REMARK  161  A    between atoms: _394  and  _395
REMARK  162  A    between atoms: _404  and  _406
REMARK  163  A    between atoms: _406  and  _407
REMARK  164  A    between atoms: _409  and  _411
REMARK  165  A    between atoms: _411  and  _412
REMARK  166  A    between atoms: _411  and  _414
REMARK  167  A    between atoms: _414  and  _415
REMARK  168  A    between atoms: _421  and  _423
REMARK  169  A    between atoms: _423  and  _424
REMARK  170  A    between atoms: _423  and  _426
REMARK  171  A    between atoms: _426  and  _427
REMARK  172  A    between atoms: _430  and  _432
REMARK  173  A    between atoms: _432  and  _433
REMARK  174  A    between atoms: _432  and  _435
REMARK  175  A    between atoms: _435  and  _436
REMARK  176  A    between atoms: _441  and  _443
REMARK  177  A    between atoms: _443  and  _444
REMARK  178  A    between atoms: _443  and  _446
REMARK  179  A    between atoms: _446  and  _447
REMARK  180  A    between atoms: _450  and  _452
REMARK  181  A    between atoms: _452  and  _453
REMARK  182  A    between atoms: _452  and  _455
REMARK  183  A    between atoms: _455  and  _456
REMARK  184  A    between atoms: _461  and  _462
REMARK  185  A    between atoms: _464  and  _466
REMARK  186  A    between atoms: _466  and  _467
REMARK  187  A    between atoms: _466  and  _469
REMARK  188  A    between atoms: _469  and  _470
REMARK  189  A    between atoms: _470  and  _471
REMARK  190  A    between atoms: _474  and  _476
REMARK  191  A    between atoms: _476  and  _477
REMARK  192  A    between atoms: _476  and  _479
REMARK  193  A    between atoms: _479  and  _480
REMARK  194  A    between atoms: _483  and  _485
REMARK  195  A    between atoms: _485  and  _486
REMARK  196  A    between atoms: _488  and  _490
REMARK  197  A    between atoms: _490  and  _491
REMARK  198  A    between atoms: _493  and  _495
REMARK  199  A    between atoms: _495  and  _496
REMARK  200  A    between atoms: _495  and  _498
REMARK  201  A    between atoms: _498  and  _499
REMARK  202  A    between atoms: _499  and  _500
REMARK  203  A    between atoms: _505  and  _507
REMARK  204  A    between atoms: _507  and  _508
REMARK  205  A    between atoms: _511  and  _513
REMARK  206  A    between atoms: _513  and  _514
REMARK  207  A    between atoms: _513  and  _516
REMARK  208  A    between atoms: _516  and  _517
REMARK  209  A    between atoms: _520  and  _522
REMARK  210  A    between atoms: _522  and  _523
REMARK  211  A    between atoms: _522  and  _525
REMARK  212  A    between atoms: _525  and  _526
REMARK  213  A    between atoms: _526  and  _527
REMARK  214  A    between atoms: _532  and  _534
REMARK  215  A    between atoms: _534  and  _535
REMARK  216  A    between atoms: _534  and  _537
REMARK  217  A    between atoms: _537  and  _538
REMARK  218  A    between atoms: _541  and  _543
REMARK  219  A    between atoms: _543  and  _544
REMARK  220  A    between atoms: _543  and  _546
REMARK  221  A    between atoms: _546  and  _547
REMARK  222  A    between atoms: _547  and  _548
REMARK  223  A    between atoms: _548  and  _549
REMARK                            x       y       z     vdW  Elec       q    Type
REMARK                         _______ _______ _______ _____ _____    ______ ____
ROOT
ATOM      1  CA  ASP A   2      -1.892  12.003  -7.618  0.00  0.00    +0.160 C 
ENDROOT
BRANCH   1   2
ATOM      2  C   ASP A   2      -1.016  13.249  -7.853  0.00  0.00    +0.244 C 
ATOM      3  N   PRO A   3       0.000  13.479  -7.001  0.00  0.00    -0.273 N 
ATOM      4  CD  PRO A   3       0.501  12.583  -5.944  0.00  0.00    +0.094 C 
ATOM      5  CG  PRO A   3       1.806  13.235  -5.523  0.00  0.00    +0.024 C 
ATOM      6  CB  PRO A   3       1.628  14.696  -5.812  0.00  0.00    +0.030 C 
ATOM      7  CA  PRO A   3       0.776  14.727  -7.087  0.00  0.00    +0.140 C 
ATOM      8  O   ASP A   2      -1.244  13.980  -8.801  0.00  0.00    -0.273 OA
BRANCH   7   9
ATOM      9  C   PRO A   3       1.665  14.828  -8.329  0.00  0.00    +0.227 C 
ATOM     10  O   PRO A   3       2.194  15.900  -8.616  0.00  0.00    -0.286 OA
ENDBRANCH   7   9
ENDBRANCH   1   2
BRANCH   1  13
ATOM     11  C   ALA A   1      -3.973  12.531  -6.368  0.00  0.00    +0.238 C 
ATOM     12  O   ALA A   1      -3.486  12.334  -5.246  0.00  0.00    -0.274 OA
ATOM     13  N   ASP A   2      -3.292  12.409  -7.504  0.00  0.00    -0.297 N 
ATOM     14  H   ASP A   2      -3.799  12.621  -8.387  0.00  0.00    +0.150 HD
BRANCH  11  15
ATOM     15  CA  ALA A   1      -5.442  12.952  -6.551  0.00  0.00    +0.145 C 
ATOM     16  CB  ALA A   1      -5.528  14.351  -7.173  0.00  0.00    +0.028 C 
BRANCH  15  17
ATOM     17  N   ALA A   1      -6.205  12.903  -5.311  0.00  0.00    -0.238 NA
ATOM     18  H   ALA A   1      -6.437  13.780  -4.803  0.00  0.00    +0.142 HD
ENDBRANCH  15  17
ENDBRANCH  11  15
ENDBRANCH   1  13
BRANCH   1  19
ATOM     19  CB  ASP A   2      -1.768  11.011  -8.779  0.00  0.00    +0.143 C 
BRANCH  19  20
ATOM     20  CG  ASP A   2      -0.377  10.432  -8.940  0.00  0.00    +0.367 C 
ATOM     21  OD2 ASP A   2       0.623  11.154  -8.755  0.00  0.00    -0.246 OA
ATOM     22  OD1 ASP A   2      -0.291   9.236  -9.299  0.00  0.00    -0.246 OA
ENDBRANCH  19  20
ENDBRANCH   1  19
TORSDOF 7
REMARK  Name = ../refined-set-2016/4r74/4r74_pocket.pdb
REMARK  223 active torsions:
REMARK  status: ('A' for Active; 'I' for Inactive)
REMARK    1  A    between atoms: _1  and  _3
REMARK    2  A    between atoms: _3  and  _4
REMARK    3  A    between atoms: _3  and  _6
REMARK    4  A    between atoms: _6  and  _7
REMARK    5  A    between atoms: _9  and  _11
REMARK    6  A    between atoms: _11  and  _12
REMARK    7  A    between atoms: _15  and  _17
REMARK    8  A    between atoms: _17  and  _18
REMARK    9  A    between atoms: _17  and  _20
REMARK   10  A    between atoms: _20  and  _21
REMARK   11  A    between atoms: _24  and  _26
REMARK   12  A    between atoms: _26  and  _27
REMARK   13  A    between atoms: _26  and  _29
REMARK   14  A    between atoms: _29  and  _30
REMARK   15  A    between atoms: _35  and  _37
REMARK   16  A    between atoms: _37  and  _38
REMARK   17  A    between atoms: _37  and  _40
REMARK   18  A    between atoms: _40  and  _41
REMARK   19  A    between atoms: _41  and  _42
REMARK   20  A    between atoms: _44  and  _46
REMARK   21  A    between atoms: _46  and  _47
REMARK   22  A    between atoms: _46  and  _49
REMARK   23  A    between atoms: _49  and  _50
REMARK   24  A    between atoms: _50  and  _51
REMARK   25  A    between atoms: _51  and  _52
REMARK   26  A    between atoms: _61  and  _63
REMARK   27  A    between atoms: _63  and  _64
REMARK   28  A    between atoms: _63  and  _66
REMARK   29  A    between atoms: _66  and  _67
REMARK   30  A    between atoms: _72  and  _74
REMARK   31  A    between atoms: _74  and  _75
REMARK   32  A    between atoms: _77  and  _79
REMARK   33  A    between atoms: _79  and  _80
REMARK   34  A    between atoms: _79  and  _82
REMARK   35  A    between atoms: _82  and  _83
REMARK   36  A    between atoms: _85  and  _87
REMARK   37  A    between atoms: _87  and  _88
REMARK   38  A    between atoms: _90  and  _92
REMARK   39  A    between atoms: _92  and  _93
REMARK   40  A    between atoms: _92  and  _95
REMARK   41  A    between atoms: _95  and  _96
REMARK   42  A    between atoms: _98  and  _100
REMARK   43  A    between atoms: _100  and  _101
REMARK   44  A    between atoms: _100  and  _103
REMARK   45  A    between atoms: _103  and  _104
REMARK   46  A    between atoms: _107  and  _109
REMARK   47  A    between atoms: _109  and  _110
REMARK   48  A    between atoms: _109  and  _112
REMARK   49  A    between atoms: _112  and  _113
REMARK   50  A    between atoms: _119  and  _121
REMARK   51  A    between atoms: _121  and  _122
REMARK   52  A    between atoms: _121  and  _124
REMARK   53  A    between atoms: _124  and  _125
REMARK   54  A    between atoms: _135  and  _137
REMARK   55  A    between atoms: _137  and  _138
REMARK   56  A    between atoms: _137  and  _140
REMARK   57  A    between atoms: _140  and  _141
REMARK   58  A    between atoms: _146  and  _147
REMARK   59  A    between atoms: _149  and  _151
REMARK   60  A    between atoms: _151  and  _152
REMARK   61  A    between atoms: _154  and  _156
REMARK   62  A    between atoms: _156  and  _157
REMARK   63  A    between atoms: _159  and  _161
REMARK   64  A    between atoms: _161  and  _162
REMARK   65  A    between atoms: _161  and  _164
REMARK   66  A    between atoms: _164  and  _165
REMARK   67  A    between atoms: _168  and  _170
REMARK   68  A    between atoms: _170  and  _171
REMARK   69  A    between atoms: _170  and  _173
REMARK   70  A    between atoms: _173  and  _174
REMARK   71  A    between atoms: _178  and  _179
REMARK   72  A    between atoms: _184  and  _186
REMARK   73  A    between atoms: _186  and  _187
REMARK   74  A    between atoms: _186  and  _189
REMARK   75  A    between atoms: _189  and  _190
REMARK   76  A    between atoms: _190  and  _191
REMARK   77  A    between atoms: _196  and  _198
REMARK   78  A    between atoms: _198  and  _199
REMARK   79  A    between atoms: _198  and  _201
REMARK   80  A    between atoms: _204  and  _206
REMARK   81  A    between atoms: _206  and  _207
REMARK   82  A    between atoms: _206  and  _209
REMARK   83  A    between atoms: _209  and  _210
REMARK   84  A    between atoms: _215  and  _216
REMARK   85  A    between atoms: _218  and  _220
REMARK   86  A    between atoms: _220  and  _221
REMARK   87  A    between atoms: _220  and  _223
REMARK   88  A    between atoms: _223  and  _224
REMARK   89  A    between atoms: _227  and  _229
REMARK   90  A    between atoms: _229  and  _230
REMARK   91  A    between atoms: _232  and  _234
REMARK   92  A    between atoms: _234  and  _235
REMARK   93  A    between atoms: _234  and  _237
REMARK   94  A    between atoms: _237  and  _238
REMARK   95  A    between atoms: _241  and  _243
REMARK   96  A    between atoms: _243  and  _244
REMARK   97  A    between atoms: _247  and  _249
REMARK   98  A    between atoms: _249  and  _250
REMARK   99  A    between atoms: _249  and  _252
REMARK  100  A    between atoms: _252  and  _253
REMARK  101  A    between atoms: _257  and  _258
REMARK  102  A    between atoms: _263  and  _265
REMARK  103  A    between atoms: _265  and  _266
REMARK  104  A    between atoms: _265  and  _268
REMARK  105  A    between atoms: _268  and  _269
REMARK  106  A    between atoms: _271  and  _273
REMARK  107  A    between atoms: _273  and  _274
REMARK  108  A    between atoms: _273  and  _276
REMARK  109  A    between atoms: _276  and  _277
REMARK  110  A    between atoms: _279  and  _281
REMARK  111  A    between atoms: _281  and  _282
REMARK  112  A    between atoms: _284  and  _286
REMARK  113  A    between atoms: _286  and  _287
REMARK  114  A    between atoms: _286  and  _289
REMARK  115  A    between atoms: _289  and  _290
REMARK  116  A    between atoms: _293  and  _295
REMARK  117  A    between atoms: _295  and  _296
REMARK  118  A    between atoms: _299  and  _301
REMARK  119  A    between atoms: _301  and  _302
REMARK  120  A    between atoms: _301  and  _304
REMARK  121  A    between atoms: _304  and  _305
REMARK  122  A    between atoms: _310  and  _311
REMARK  123  A    between atoms: _313  and  _315
REMARK  124  A    between atoms: _315  and  _316
REMARK  125  A    between atoms: _315  and  _318
REMARK  126  A    between atoms: _318  and  _319
REMARK  127  A    between atoms: _322  and  _324
REMARK  128  A    between atoms: _324  and  _325
REMARK  129  A    between atoms: _328  and  _330
REMARK  130  A    between atoms: _330  and  _331
REMARK  131  A    between atoms: _330  and  _333
REMARK  132  A    between atoms: _333  and  _334
REMARK  133  A    between atoms: _337  and  _339
REMARK  134  A    between atoms: _339  and  _340
REMARK  135  A    between atoms: _339  and  _342
REMARK  136  A    between atoms: _342  and  _343
REMARK  137  A    between atoms: _343  and  _344
REMARK  138  A    between atoms: _344  and  _345
REMARK  139  A    between atoms: _345  and  _346
REMARK  140  A    between atoms: _350  and  _352
REMARK  141  A    between atoms: _352  and  _353
REMARK  142  A    between atoms: _352  and  _355
REMARK  143  A    between atoms: _355  and  _356
REMARK  144  A    between atoms: _358  and  _360
REMARK  145  A    between atoms: _360  and  _361
REMARK  146  A    between atoms: _363  and  _365
REMARK  147  A    between atoms: _365  and  _366
REMARK  148  A    between atoms: _365  and  _368
REMARK  149  A    between atoms: _368  and  _369
REMARK  150  A    between atoms: _372  and  _374
REMARK  151  A    between atoms: _374  and  _375
REMARK  152  A    between atoms: _374  and  _377
REMARK  153  A    between atoms: _377  and  _378
REMARK  154  A    between atoms: _381  and  _383
REMARK  155  A    between atoms: _383  and  _384
REMARK  156  A    between atoms: _387  and  _389
REMARK  157  A    between atoms: _389  and  _390
REMARK  158  A    between atoms: _389  and  _392
REMARK  159  A    between atoms: _392  and  _393
REMARK  160  A    between atoms: _393  and  _394
REMARK  161  A    between atoms: _394  and  _395
REMARK  162  A    between atoms: _404  and  _406
REMARK  163  A    between atoms: _406  and  _407
REMARK  164  A    between atoms: _409  and  _411
REMARK  165  A    between atoms: _411  and  _412
REMARK  166  A    between atoms: _411  and  _414
REMARK  167  A    between atoms: _414  and  _415
REMARK  168  A    between atoms: _421  and  _423
REMARK  169  A    between atoms: _423  and  _424
REMARK  170  A    between atoms: _423  and  _426
REMARK  171  A    between atoms: _426  and  _427
REMARK  172  A    between atoms: _430  and  _432
REMARK  173  A    between atoms: _432  and  _433
REMARK  174  A    between atoms: _432  and  _435
REMARK  175  A    between atoms: _435  and  _436
REMARK  176  A    between atoms: _441  and  _443
REMARK  177  A    between atoms: _443  and  _444
REMARK  178  A    between atoms: _443  and  _446
REMARK  179  A    between atoms: _446  and  _447
REMARK  180  A    between atoms: _450  and  _452
REMARK  181  A    between atoms: _452  and  _453
REMARK  182  A    between atoms: _452  and  _455
REMARK  183  A    between atoms: _455  and  _456
REMARK  184  A    between atoms: _461  and  _462
REMARK  185  A    between atoms: _464  and  _466
REMARK  186  A    between atoms: _466  and  _467
REMARK  187  A    between atoms: _466  and  _469
REMARK  188  A    between atoms: _469  and  _470
REMARK  189  A    between atoms: _470  and  _471
REMARK  190  A    between atoms: _474  and  _476
REMARK  191  A    between atoms: _476  and  _477
REMARK  192  A    between atoms: _476  and  _479
REMARK  193  A    between atoms: _479  and  _480
REMARK  194  A    between atoms: _483  and  _485
REMARK  195  A    between atoms: _485  and  _486
REMARK  196  A    between atoms: _488  and  _490
REMARK  197  A    between atoms: _490  and  _491
REMARK  198  A    between atoms: _493  and  _495
REMARK  199  A    between atoms: _495  and  _496
REMARK  200  A    between atoms: _495  and  _498
REMARK  201  A    between atoms: _498  and  _499
REMARK  202  A    between atoms: _499  and  _500
REMARK  203  A    between atoms: _505  and  _507
REMARK  204  A    between atoms: _507  and  _508
REMARK  205  A    between atoms: _511  and  _513
REMARK  206  A    between atoms: _513  and  _514
REMARK  207  A    between atoms: _513  and  _516
REMARK  208  A    between atoms: _516  and  _517
REMARK  209  A    between atoms: _520  and  _522
REMARK  210  A    between atoms: _522  and  _523
REMARK  211  A    between atoms: _522  and  _525
REMARK  212  A    between atoms: _525  and  _526
REMARK  213  A    between atoms: _526  and  _527
REMARK  214  A    between atoms: _532  and  _534
REMARK  215  A    between atoms: _534  and  _535
REMARK  216  A    between atoms: _534  and  _537
REMARK  217  A    between atoms: _537  and  _538
REMARK  218  A    between atoms: _541  and  _543
REMARK  219  A    between atoms: _543  and  _544
REMARK  220  A    between atoms: _543  and  _546
REMARK  221  A    between atoms: _546  and  _547
REMARK  222  A    between atoms: _547  and  _548
REMARK  223  A    between atoms: _548  and  _549
REMARK                            x       y       z     vdW  Elec       q    Type
REMARK                         _______ _______ _______ _____ _____    ______ ____
ROOT
ATOM      1  CA  ALA A   5      -2.476  16.396  -4.198  0.00  0.00    +0.149 C 
ATOM      2  CB  ALA A   5      -2.176  15.261  -5.138  0.00  0.00    +0.031 C 
ENDROOT
BRANCH   1   5
ATOM      3  C   THR A   4      -3.596  18.535  -4.266  0.00  0.00    +0.243 C 
ATOM      4  O   THR A   4      -3.473  18.692  -3.051  0.00  0.00    -0.273 OA
ATOM      5  N   ALA A   5      -3.140  17.476  -4.909  0.00  0.00    -0.297 N 
ATOM      6  H   ALA A   5      -3.258  17.413  -5.940  0.00  0.00    +0.150 HD
BRANCH   3   7
ATOM      7  CA  THR A   4      -4.297  19.566  -5.141  0.00  0.00    +0.176 C 
BRANCH   7  10
ATOM      8  C   GLY A   3      -2.264  20.263  -6.295  0.00  0.00    +0.243 C 
ATOM      9  O   GLY A   3      -1.672  20.456  -5.231  0.00  0.00    -0.273 OA
ATOM     10  N   THR A   4      -3.528  19.859  -6.354  0.00  0.00    -0.295 N 
ATOM     11  H   THR A   4      -3.983  19.748  -7.283  0.00  0.00    +0.150 HD
BRANCH   8  12
ATOM     12  CA  GLY A   3      -1.561  20.484  -7.628  0.00  0.00    +0.176 C 
BRANCH  12  15
ATOM     13  C   SER A   2      -1.707  18.230  -8.503  0.00  0.00    +0.243 C 
ATOM     14  O   SER A   2      -1.025  17.785  -7.573  0.00  0.00    -0.273 OA
ATOM     15  N   GLY A   3      -1.971  19.523  -8.645  0.00  0.00    -0.295 N 
ATOM     16  H   GLY A   3      -2.476  19.855  -9.491  0.00  0.00    +0.150 HD
BRANCH  13  17
ATOM     17  CA  SER A   2      -2.351  17.293  -9.520  0.00  0.00    +0.178 C 
BRANCH  17  19
ATOM     18  C   SER A   1      -1.014  16.650 -11.459  0.00  0.00    +0.241 C 
ATOM     19  N   SER A   2      -1.411  16.412 -10.212  0.00  0.00    -0.295 N 
ATOM     20  H   SER A   2      -1.043  15.576  -9.715  0.00  0.00    +0.150 HD
ATOM     21  O   SER A   1      -1.199  17.725 -12.033  0.00  0.00    -0.274 OA
BRANCH  18  22
ATOM     22  CA  SER A   1      -0.307  15.501 -12.169  0.00  0.00    +0.174 C 
BRANCH  22  23
ATOM     23  N   SER A   1       0.475  14.673 -11.244  0.00  0.00    -0.236 NA
ATOM     24  H   SER A   1      -0.015  14.108 -10.521  0.00  0.00    +0.142 HD
ENDBRANCH  22  23
BRANCH  22  25
ATOM     25  CB  SER A   1      -1.345  14.648 -12.907  0.00  0.00    +0.163 C 
BRANCH  25  26
ATOM     26  OG  SER A   1      -2.089  13.831 -12.010  0.00  0.00    -0.380 OA
ATOM     27  H   SER A   1      -2.564  14.406 -11.358  0.00  0.00    +0.211 HD
ENDBRANCH  25  26
ENDBRANCH  22  25
ENDBRANCH  18  22
ENDBRANCH  17  19
BRANCH  17  28
ATOM     28  CB  SER A   2      -3.407  16.449  -8.809  0.00  0.00    +0.166 C 
BRANCH  28  29
ATOM     29  OG  SER A   2      -4.106  17.191  -7.817  0.00  0.00    -0.380 OA
ATOM     30  H   SER A   2      -4.561  17.961  -8.242  0.00  0.00    +0.211 HD
ENDBRANCH  28  29
ENDBRANCH  17  28
ENDBRANCH  13  17
ENDBRANCH  12  15
ENDBRANCH   8  12
ENDBRANCH   7  10
BRANCH   7  31
ATOM     31  CB  THR A   4      -5.698  19.027  -5.472  0.00  0.00    +0.137 C 
ATOM     32  CG2 THR A   4      -6.504  18.861  -4.181  0.00  0.00    +0.034 C 
BRANCH  31  33
ATOM     33  OG1 THR A   4      -6.372  19.943  -6.351  0.00  0.00    -0.382 OA
ATOM     34  HG1 THR A   4      -5.851  20.041  -7.187  0.00  0.00    +0.210 HD
ENDBRANCH  31  33
ENDBRANCH   7  31
ENDBRANCH   3   7
ENDBRANCH   1   5
BRANCH   1  35
ATOM     35  C   ALA A   5      -1.200  16.915  -3.538  0.00  0.00    +0.241 C 
ATOM     36  O   ALA A   5      -0.873  16.501  -2.431  0.00  0.00    -0.273 OA
ATOM     37  N   TYR A   6      -0.509  17.849  -4.195  0.00  0.00    -0.297 N 
ATOM     38  H   TYR A   6      -0.842  18.194  -5.118  0.00  0.00    +0.150 HD
BRANCH  37  39
ATOM     39  CA  TYR A   6       0.724  18.387  -3.607  0.00  0.00    +0.153 C 
BRANCH  39  40
ATOM     40  C   TYR A   6       0.411  19.316  -2.445  0.00  0.00    +0.241 C 
ATOM     41  O   TYR A   6       1.109  19.320  -1.423  0.00  0.00    -0.273 OA
ATOM     42  N   THR A   7      -0.647  20.103  -2.596  0.00  0.00    -0.295 N 
ATOM     43  H   THR A   7      -1.170  20.098  -3.495  0.00  0.00    +0.150 HD
BRANCH  42  44
ATOM     44  CA  THR A   7      -1.080  20.974  -1.510  0.00  0.00    +0.176 C 
BRANCH  44  45
ATOM     45  C   THR A   7      -1.380  20.168  -0.244  0.00  0.00    +0.243 C 
ATOM     46  O   THR A   7      -1.026  20.585   0.871  0.00  0.00    -0.273 OA
ATOM     47  N   ALA A   8      -2.007  19.005  -0.415  0.00  0.00    -0.298 N 
ATOM     48  H   ALA A   8      -2.334  18.740  -1.366  0.00  0.00    +0.150 HD
BRANCH  47  49
ATOM     49  CA  ALA A   8      -2.247  18.088   0.706  0.00  0.00    +0.137 C 
ATOM     50  CB  ALA A   8      -3.112  16.895   0.252  0.00  0.00    +0.030 C 
BRANCH  49  51
ATOM     51  C   ALA A   8      -0.941  17.576   1.321  0.00  0.00    +0.227 C 
ATOM     52  O   ALA A   8      -0.756  17.625   2.535  0.00  0.00    -0.286 OA
ENDBRANCH  49  51
ENDBRANCH  47  49
ENDBRANCH  44  45
BRANCH  44  53
ATOM     53  CB  THR A   7      -2.314  21.790  -1.915  0.00  0.00    +0.137 C 
ATOM     54  CG2 THR A   7      -2.843  22.596  -0.712  0.00  0.00    +0.034 C 
BRANCH  53  55
ATOM     55  OG1 THR A   7      -1.963  22.676  -2.991  0.00  0.00    -0.382 OA
ATOM     56  HG1 THR A   7      -1.243  23.287  -2.692  0.00  0.00    +0.210 HD
ENDBRANCH  53  55
ENDBRANCH  44  53
ENDBRANCH  42  44
ENDBRANCH  39  40
BRANCH  39  57
ATOM     57  CB  TYR A   6       1.578  19.123  -4.639  0.00  0.00    +0.055 C 
BRANCH  57  58
ATOM     58  CG  TYR A   6       2.815  19.694  -3.987  0.00  0.00    -0.020 A 
ATOM     59  CD2 TYR A   6       3.779  18.847  -3.438  0.00  0.00    -0.001 A 
ATOM     60  CE2 TYR A   6       4.906  19.355  -2.801  0.00  0.00    +0.036 A 
ATOM     61  CZ  TYR A   6       5.073  20.722  -2.702  0.00  0.00    +0.134 A 
ATOM     62  CE1 TYR A   6       4.115  21.587  -3.222  0.00  0.00    +0.036 A 
ATOM     63  CD1 TYR A   6       2.987  21.060  -3.851  0.00  0.00    -0.001 A 
BRANCH  61  64
ATOM     64  OH  TYR A   6       6.198  21.223  -2.077  0.00  0.00    -0.506 OA
ATOM     65  HH  TYR A   6       6.706  21.784  -2.715  0.00  0.00    +0.292 HD
ENDBRANCH  61  64
ENDBRANCH  57  58
ENDBRANCH  39  57
ENDBRANCH  37  39
ENDBRANCH   1  35
TORSDOF 27
REMARK  Name = ../refined-set-2016/4r74/4r74_pocket.pdb
REMARK  223 active torsions:
REMARK  status: ('A' for Active; 'I' for Inactive)
REMARK    1  A    between atoms: _1  and  _3
REMARK    2  A    between atoms: _3  and  _4
REMARK    3  A    between atoms: _3  and  _6
REMARK    4  A    between atoms: _6  and  _7
REMARK    5  A    between atoms: _9  and  _11
REMARK    6  A    between atoms: _11  and  _12
REMARK    7  A    between atoms: _15  and  _17
REMARK    8  A    between atoms: _17  and  _18
REMARK    9  A    between atoms: _17  and  _20
REMARK   10  A    between atoms: _20  and  _21
REMARK   11  A    between atoms: _24  and  _26
REMARK   12  A    between atoms: _26  and  _27
REMARK   13  A    between atoms: _26  and  _29
REMARK   14  A    between atoms: _29  and  _30
REMARK   15  A    between atoms: _35  and  _37
REMARK   16  A    between atoms: _37  and  _38
REMARK   17  A    between atoms: _37  and  _40
REMARK   18  A    between atoms: _40  and  _41
REMARK   19  A    between atoms: _41  and  _42
REMARK   20  A    between atoms: _44  and  _46
REMARK   21  A    between atoms: _46  and  _47
REMARK   22  A    between atoms: _46  and  _49
REMARK   23  A    between atoms: _49  and  _50
REMARK   24  A    between atoms: _50  and  _51
REMARK   25  A    between atoms: _51  and  _52
REMARK   26  A    between atoms: _61  and  _63
REMARK   27  A    between atoms: _63  and  _64
REMARK   28  A    between atoms: _63  and  _66
REMARK   29  A    between atoms: _66  and  _67
REMARK   30  A    between atoms: _72  and  _74
REMARK   31  A    between atoms: _74  and  _75
REMARK   32  A    between atoms: _77  and  _79
REMARK   33  A    between atoms: _79  and  _80
REMARK   34  A    between atoms: _79  and  _82
REMARK   35  A    between atoms: _82  and  _83
REMARK   36  A    between atoms: _85  and  _87
REMARK   37  A    between atoms: _87  and  _88
REMARK   38  A    between atoms: _90  and  _92
REMARK   39  A    between atoms: _92  and  _93
REMARK   40  A    between atoms: _92  and  _95
REMARK   41  A    between atoms: _95  and  _96
REMARK   42  A    between atoms: _98  and  _100
REMARK   43  A    between atoms: _100  and  _101
REMARK   44  A    between atoms: _100  and  _103
REMARK   45  A    between atoms: _103  and  _104
REMARK   46  A    between atoms: _107  and  _109
REMARK   47  A    between atoms: _109  and  _110
REMARK   48  A    between atoms: _109  and  _112
REMARK   49  A    between atoms: _112  and  _113
REMARK   50  A    between atoms: _119  and  _121
REMARK   51  A    between atoms: _121  and  _122
REMARK   52  A    between atoms: _121  and  _124
REMARK   53  A    between atoms: _124  and  _125
REMARK   54  A    between atoms: _135  and  _137
REMARK   55  A    between atoms: _137  and  _138
REMARK   56  A    between atoms: _137  and  _140
REMARK   57  A    between atoms: _140  and  _141
REMARK   58  A    between atoms: _146  and  _147
REMARK   59  A    between atoms: _149  and  _151
REMARK   60  A    between atoms: _151  and  _152
REMARK   61  A    between atoms: _154  and  _156
REMARK   62  A    between atoms: _156  and  _157
REMARK   63  A    between atoms: _159  and  _161
REMARK   64  A    between atoms: _161  and  _162
REMARK   65  A    between atoms: _161  and  _164
REMARK   66  A    between atoms: _164  and  _165
REMARK   67  A    between atoms: _168  and  _170
REMARK   68  A    between atoms: _170  and  _171
REMARK   69  A    between atoms: _170  and  _173
REMARK   70  A    between atoms: _173  and  _174
REMARK   71  A    between atoms: _178  and  _179
REMARK   72  A    between atoms: _184  and  _186
REMARK   73  A    between atoms: _186  and  _187
REMARK   74  A    between atoms: _186  and  _189
REMARK   75  A    between atoms: _189  and  _190
REMARK   76  A    between atoms: _190  and  _191
REMARK   77  A    between atoms: _196  and  _198
REMARK   78  A    between atoms: _198  and  _199
REMARK   79  A    between atoms: _198  and  _201
REMARK   80  A    between atoms: _204  and  _206
REMARK   81  A    between atoms: _206  and  _207
REMARK   82  A    between atoms: _206  and  _209
REMARK   83  A    between atoms: _209  and  _210
REMARK   84  A    between atoms: _215  and  _216
REMARK   85  A    between atoms: _218  and  _220
REMARK   86  A    between atoms: _220  and  _221
REMARK   87  A    between atoms: _220  and  _223
REMARK   88  A    between atoms: _223  and  _224
REMARK   89  A    between atoms: _227  and  _229
REMARK   90  A    between atoms: _229  and  _230
REMARK   91  A    between atoms: _232  and  _234
REMARK   92  A    between atoms: _234  and  _235
REMARK   93  A    between atoms: _234  and  _237
REMARK   94  A    between atoms: _237  and  _238
REMARK   95  A    between atoms: _241  and  _243
REMARK   96  A    between atoms: _243  and  _244
REMARK   97  A    between atoms: _247  and  _249
REMARK   98  A    between atoms: _249  and  _250
REMARK   99  A    between atoms: _249  and  _252
REMARK  100  A    between atoms: _252  and  _253
REMARK  101  A    between atoms: _257  and  _258
REMARK  102  A    between atoms: _263  and  _265
REMARK  103  A    between atoms: _265  and  _266
REMARK  104  A    between atoms: _265  and  _268
REMARK  105  A    between atoms: _268  and  _269
REMARK  106  A    between atoms: _271  and  _273
REMARK  107  A    between atoms: _273  and  _274
REMARK  108  A    between atoms: _273  and  _276
REMARK  109  A    between atoms: _276  and  _277
REMARK  110  A    between atoms: _279  and  _281
REMARK  111  A    between atoms: _281  and  _282
REMARK  112  A    between atoms: _284  and  _286
REMARK  113  A    between atoms: _286  and  _287
REMARK  114  A    between atoms: _286  and  _289
REMARK  115  A    between atoms: _289  and  _290
REMARK  116  A    between atoms: _293  and  _295
REMARK  117  A    between atoms: _295  and  _296
REMARK  118  A    between atoms: _299  and  _301
REMARK  119  A    between atoms: _301  and  _302
REMARK  120  A    between atoms: _301  and  _304
REMARK  121  A    between atoms: _304  and  _305
REMARK  122  A    between atoms: _310  and  _311
REMARK  123  A    between atoms: _313  and  _315
REMARK  124  A    between atoms: _315  and  _316
REMARK  125  A    between atoms: _315  and  _318
REMARK  126  A    between atoms: _318  and  _319
REMARK  127  A    between atoms: _322  and  _324
REMARK  128  A    between atoms: _324  and  _325
REMARK  129  A    between atoms: _328  and  _330
REMARK  130  A    between atoms: _330  and  _331
REMARK  131  A    between atoms: _330  and  _333
REMARK  132  A    between atoms: _333  and  _334
REMARK  133  A    between atoms: _337  and  _339
REMARK  134  A    between atoms: _339  and  _340
REMARK  135  A    between atoms: _339  and  _342
REMARK  136  A    between atoms: _342  and  _343
REMARK  137  A    between atoms: _343  and  _344
REMARK  138  A    between atoms: _344  and  _345
REMARK  139  A    between atoms: _345  and  _346
REMARK  140  A    between atoms: _350  and  _352
REMARK  141  A    between atoms: _352  and  _353
REMARK  142  A    between atoms: _352  and  _355
REMARK  143  A    between atoms: _355  and  _356
REMARK  144  A    between atoms: _358  and  _360
REMARK  145  A    between atoms: _360  and  _361
REMARK  146  A    between atoms: _363  and  _365
REMARK  147  A    between atoms: _365  and  _366
REMARK  148  A    between atoms: _365  and  _368
REMARK  149  A    between atoms: _368  and  _369
REMARK  150  A    between atoms: _372  and  _374
REMARK  151  A    between atoms: _374  and  _375
REMARK  152  A    between atoms: _374  and  _377
REMARK  153  A    between atoms: _377  and  _378
REMARK  154  A    between atoms: _381  and  _383
REMARK  155  A    between atoms: _383  and  _384
REMARK  156  A    between atoms: _387  and  _389
REMARK  157  A    between atoms: _389  and  _390
REMARK  158  A    between atoms: _389  and  _392
REMARK  159  A    between atoms: _392  and  _393
REMARK  160  A    between atoms: _393  and  _394
REMARK  161  A    between atoms: _394  and  _395
REMARK  162  A    between atoms: _404  and  _406
REMARK  163  A    between atoms: _406  and  _407
REMARK  164  A    between atoms: _409  and  _411
REMARK  165  A    between atoms: _411  and  _412
REMARK  166  A    between atoms: _411  and  _414
REMARK  167  A    between atoms: _414  and  _415
REMARK  168  A    between atoms: _421  and  _423
REMARK  169  A    between atoms: _423  and  _424
REMARK  170  A    between atoms: _423  and  _426
REMARK  171  A    between atoms: _426  and  _427
REMARK  172  A    between atoms: _430  and  _432
REMARK  173  A    between atoms: _432  and  _433
REMARK  174  A    between atoms: _432  and  _435
REMARK  175  A    between atoms: _435  and  _436
REMARK  176  A    between atoms: _441  and  _443
REMARK  177  A    between atoms: _443  and  _444
REMARK  178  A    between atoms: _443  and  _446
REMARK  179  A    between atoms: _446  and  _447
REMARK  180  A    between atoms: _450  and  _452
REMARK  181  A    between atoms: _452  and  _453
REMARK  182  A    between atoms: _452  and  _455
REMARK  183  A    between atoms: _455  and  _456
REMARK  184  A    between atoms: _461  and  _462
REMARK  185  A    between atoms: _464  and  _466
REMARK  186  A    between atoms: _466  and  _467
REMARK  187  A    between atoms: _466  and  _469
REMARK  188  A    between atoms: _469  and  _470
REMARK  189  A    between atoms: _470  and  _471
REMARK  190  A    between atoms: _474  and  _476
REMARK  191  A    between atoms: _476  and  _477
REMARK  192  A    between atoms: _476  and  _479
REMARK  193  A    between atoms: _479  and  _480
REMARK  194  A    between atoms: _483  and  _485
REMARK  195  A    between atoms: _485  and  _486
REMARK  196  A    between atoms: _488  and  _490
REMARK  197  A    between atoms: _490  and  _491
REMARK  198  A    between atoms: _493  and  _495
REMARK  199  A    between atoms: _495  and  _496
REMARK  200  A    between atoms: _495  and  _498
REMARK  201  A    between atoms: _498  and  _499
REMARK  202  A    between atoms: _499  and  _500
REMARK  203  A    between atoms: _505  and  _507
REMARK  204  A    between atoms: _507  and  _508
REMARK  205  A    between atoms: _511  and  _513
REMARK  206  A    between atoms: _513  and  _514
REMARK  207  A    between atoms: _513  and  _516
REMARK  208  A    between atoms: _516  and  _517
REMARK  209  A    between atoms: _520  and  _522
REMARK  210  A    between atoms: _522  and  _523
REMARK  211  A    between atoms: _522  and  _525
REMARK  212  A    between atoms: _525  and  _526
REMARK  213  A    between atoms: _526  and  _527
REMARK  214  A    between atoms: _532  and  _534
REMARK  215  A    between atoms: _534  and  _535
REMARK  216  A    between atoms: _534  and  _537
REMARK  217  A    between atoms: _537  and  _538
REMARK  218  A    between atoms: _541  and  _543
REMARK  219  A    between atoms: _543  and  _544
REMARK  220  A    between atoms: _543  and  _546
REMARK  221  A    between atoms: _546  and  _547
REMARK  222  A    between atoms: _547  and  _548
REMARK  223  A    between atoms: _548  and  _549
REMARK                            x       y       z     vdW  Elec       q    Type
REMARK                         _______ _______ _______ _____ _____    ______ ____
ROOT
ATOM      1  CA  SER A   3      -7.266  15.403 -11.551  0.00  0.00    +0.178 C 
ENDROOT
BRANCH   1   2
ATOM      2  C   SER A   3      -7.657  15.632 -10.091  0.00  0.00    +0.243 C 
ATOM      3  O   SER A   3      -8.228  14.748  -9.445  0.00  0.00    -0.273 OA
ATOM      4  N   GLY A   4      -7.365  16.831  -9.589  0.00  0.00    -0.295 N 
ATOM      5  H   GLY A   4      -6.930  17.546 -10.206  0.00  0.00    +0.150 HD
BRANCH   4   6
ATOM      6  CA  GLY A   4      -7.640  17.167  -8.194  0.00  0.00    +0.176 C 
BRANCH   6   7
ATOM      7  C   GLY A   4      -9.130  17.108  -7.870  0.00  0.00    +0.243 C 
ATOM      8  O   GLY A   4      -9.524  16.787  -6.744  0.00  0.00    -0.273 OA
ATOM      9  N   ILE A   5      -9.955  17.410  -8.867  0.00  0.00    -0.297 N 
ATOM     10  H   ILE A   5      -9.558  17.559  -9.817  0.00  0.00    +0.150 HD
BRANCH   9  11
ATOM     11  CA  ILE A   5     -11.400  17.541  -8.680  0.00  0.00    +0.149 C 
BRANCH  11  12
ATOM     12  C   ILE A   5     -12.132  16.205  -8.796  0.00  0.00    +0.241 C 
ATOM     13  O   ILE A   5     -13.306  16.081  -8.422  0.00  0.00    -0.273 OA
ATOM     14  N   THR A   6     -11.454  15.193  -9.314  0.00  0.00    -0.296 N 
ATOM     15  H   THR A   6     -10.446  15.294  -9.549  0.00  0.00    +0.150 HD
BRANCH  14  16
ATOM     16  CA  THR A   6     -12.152  13.929  -9.549  0.00  0.00    +0.164 C 
BRANCH  16  17
ATOM     17  C   THR A   6     -12.745  13.321  -8.266  0.00  0.00    +0.229 C 
ATOM     18  O   THR A   6     -13.871  12.807  -8.293  0.00  0.00    -0.286 OA
ENDBRANCH  16  17
BRANCH  16  19
ATOM     19  CB  THR A   6     -11.232  12.923 -10.245  0.00  0.00    +0.136 C 
ATOM     20  CG2 THR A   6     -11.907  11.516 -10.320  0.00  0.00    +0.034 C 
BRANCH  19  21
ATOM     21  OG1 THR A   6     -10.952  13.391 -11.575  0.00  0.00    -0.382 OA
ATOM     22  HG1 THR A   6     -11.800  13.475 -12.079  0.00  0.00    +0.210 HD
ENDBRANCH  19  21
ENDBRANCH  16  19
ENDBRANCH  14  16
ENDBRANCH  11  12
BRANCH  11  23
ATOM     23  CB  ILE A   5     -11.991  18.521  -9.713  0.00  0.00    +0.027 C 
ATOM     24  CG2 ILE A   5     -12.020  17.867 -11.109  0.00  0.00    +0.002 C 
BRANCH  23  25
ATOM     25  CG1 ILE A   5     -13.378  18.985  -9.280  0.00  0.00    +0.002 C 
ATOM     26  CD1 ILE A   5     -14.002  19.963 -10.206  0.00  0.00    +0.000 C 
ENDBRANCH  23  25
ENDBRANCH  11  23
ENDBRANCH   9  11
ENDBRANCH   6   7
ENDBRANCH   4   6
ENDBRANCH   1   2
BRANCH   1  29
ATOM     27  C   LYS A   2      -5.525  13.728 -11.879  0.00  0.00    +0.241 C 
ATOM     28  O   LYS A   2      -4.633  14.544 -11.648  0.00  0.00    -0.273 OA
ATOM     29  N   SER A   3      -6.816  14.041 -11.823  0.00  0.00    -0.295 N 
ATOM     30  H   SER A   3      -7.524  13.295 -11.977  0.00  0.00    +0.150 HD
BRANCH  27  31
ATOM     31  CA  LYS A   2      -5.191  12.275 -12.245  0.00  0.00    +0.149 C 
BRANCH  31  34
ATOM     32  C   THR A   1      -5.940  11.300 -10.183  0.00  0.00    +0.241 C 
ATOM     33  O   THR A   1      -5.124  11.970  -9.560  0.00  0.00    -0.274 OA
ATOM     34  N   LYS A   2      -6.035  11.351 -11.505  0.00  0.00    -0.297 N 
ATOM     35  H   LYS A   2      -6.707  10.736 -12.007  0.00  0.00    +0.150 HD
BRANCH  32  36
ATOM     36  CA  THR A   1      -6.893  10.364  -9.452  0.00  0.00    +0.172 C 
BRANCH  36  37
ATOM     37  CB  THR A   1      -8.217  11.086  -9.172  0.00  0.00    +0.135 C 
ATOM     38  CG2 THR A   1      -9.187  10.158  -8.421  0.00  0.00    +0.034 C 
BRANCH  37  39
ATOM     39  OG1 THR A   1      -7.966  12.238  -8.366  0.00  0.00    -0.383 OA
ATOM     40  HG1 THR A   1      -7.351  12.847  -8.846  0.00  0.00    +0.210 HD
ENDBRANCH  37  39
ENDBRANCH  36  37
BRANCH  36  41
ATOM     41  N   THR A   1      -6.293   9.875  -8.214  0.00  0.00    -0.236 NA
ATOM     42  H   THR A   1      -6.513  10.341  -7.311  0.00  0.00    +0.142 HD
ENDBRANCH  36  41
ENDBRANCH  32  36
ENDBRANCH  31  34
BRANCH  31  43
ATOM     43  CB  LYS A   2      -5.344  12.055 -13.750  0.00  0.00    +0.029 C 
BRANCH  43  44
ATOM     44  CG  LYS A   2      -4.448  12.963 -14.568  0.00  0.00    +0.000 C 
BRANCH  44  45
ATOM     45  CD  LYS A   2      -4.442  12.555 -16.032  0.00  0.00    -0.024 C 
BRANCH  45  46
ATOM     46  CE  LYS A   2      -3.710  13.579 -16.888  0.00  0.00    -0.086 C 
BRANCH  46  47
ATOM     47  NZ  LYS A   2      -4.451  14.872 -16.910  0.00  0.00    +0.380 N 
ATOM     48  HZ1 LYS A   2      -4.533  15.240 -15.941  0.00  0.00    -0.089 HD
ATOM     49  HZ2 LYS A   2      -5.401  14.719 -17.305  0.00  0.00    -0.089 HD
ATOM     50  HZ3 LYS A   2      -3.935  15.556 -17.499  0.00  0.00    -0.089 HD
ENDBRANCH  46  47
ENDBRANCH  45  46
ENDBRANCH  44  45
ENDBRANCH  43  44
ENDBRANCH  31  43
ENDBRANCH  27  31
ENDBRANCH   1  29
BRANCH   1  51
ATOM     51  CB  SER A   3      -8.453  15.758 -12.449  0.00  0.00    +0.166 C 
BRANCH  51  52
ATOM     52  OG  SER A   3      -8.106  15.572 -13.800  0.00  0.00    -0.380 OA
ATOM     53  H   SER A   3      -7.339  16.156 -14.026  0.00  0.00    +0.211 HD
ENDBRANCH  51  52
ENDBRANCH   1  51
TORSDOF 25
REMARK  Name = ../refined-set-2016/4r74/4r74_pocket.pdb
REMARK  223 active torsions:
REMARK  status: ('A' for Active; 'I' for Inactive)
REMARK    1  A    between atoms: _1  and  _3
REMARK    2  A    between atoms: _3  and  _4
REMARK    3  A    between atoms: _3  and  _6
REMARK    4  A    between atoms: _6  and  _7
REMARK    5  A    between atoms: _9  and  _11
REMARK    6  A    between atoms: _11  and  _12
REMARK    7  A    between atoms: _15  and  _17
REMARK    8  A    between atoms: _17  and  _18
REMARK    9  A    between atoms: _17  and  _20
REMARK   10  A    between atoms: _20  and  _21
REMARK   11  A    between atoms: _24  and  _26
REMARK   12  A    between atoms: _26  and  _27
REMARK   13  A    between atoms: _26  and  _29
REMARK   14  A    between atoms: _29  and  _30
REMARK   15  A    between atoms: _35  and  _37
REMARK   16  A    between atoms: _37  and  _38
REMARK   17  A    between atoms: _37  and  _40
REMARK   18  A    between atoms: _40  and  _41
REMARK   19  A    between atoms: _41  and  _42
REMARK   20  A    between atoms: _44  and  _46
REMARK   21  A    between atoms: _46  and  _47
REMARK   22  A    between atoms: _46  and  _49
REMARK   23  A    between atoms: _49  and  _50
REMARK   24  A    between atoms: _50  and  _51
REMARK   25  A    between atoms: _51  and  _52
REMARK   26  A    between atoms: _61  and  _63
REMARK   27  A    between atoms: _63  and  _64
REMARK   28  A    between atoms: _63  and  _66
REMARK   29  A    between atoms: _66  and  _67
REMARK   30  A    between atoms: _72  and  _74
REMARK   31  A    between atoms: _74  and  _75
REMARK   32  A    between atoms: _77  and  _79
REMARK   33  A    between atoms: _79  and  _80
REMARK   34  A    between atoms: _79  and  _82
REMARK   35  A    between atoms: _82  and  _83
REMARK   36  A    between atoms: _85  and  _87
REMARK   37  A    between atoms: _87  and  _88
REMARK   38  A    between atoms: _90  and  _92
REMARK   39  A    between atoms: _92  and  _93
REMARK   40  A    between atoms: _92  and  _95
REMARK   41  A    between atoms: _95  and  _96
REMARK   42  A    between atoms: _98  and  _100
REMARK   43  A    between atoms: _100  and  _101
REMARK   44  A    between atoms: _100  and  _103
REMARK   45  A    between atoms: _103  and  _104
REMARK   46  A    between atoms: _107  and  _109
REMARK   47  A    between atoms: _109  and  _110
REMARK   48  A    between atoms: _109  and  _112
REMARK   49  A    between atoms: _112  and  _113
REMARK   50  A    between atoms: _119  and  _121
REMARK   51  A    between atoms: _121  and  _122
REMARK   52  A    between atoms: _121  and  _124
REMARK   53  A    between atoms: _124  and  _125
REMARK   54  A    between atoms: _135  and  _137
REMARK   55  A    between atoms: _137  and  _138
REMARK   56  A    between atoms: _137  and  _140
REMARK   57  A    between atoms: _140  and  _141
REMARK   58  A    between atoms: _146  and  _147
REMARK   59  A    between atoms: _149  and  _151
REMARK   60  A    between atoms: _151  and  _152
REMARK   61  A    between atoms: _154  and  _156
REMARK   62  A    between atoms: _156  and  _157
REMARK   63  A    between atoms: _159  and  _161
REMARK   64  A    between atoms: _161  and  _162
REMARK   65  A    between atoms: _161  and  _164
REMARK   66  A    between atoms: _164  and  _165
REMARK   67  A    between atoms: _168  and  _170
REMARK   68  A    between atoms: _170  and  _171
REMARK   69  A    between atoms: _170  and  _173
REMARK   70  A    between atoms: _173  and  _174
REMARK   71  A    between atoms: _178  and  _179
REMARK   72  A    between atoms: _184  and  _186
REMARK   73  A    between atoms: _186  and  _187
REMARK   74  A    between atoms: _186  and  _189
REMARK   75  A    between atoms: _189  and  _190
REMARK   76  A    between atoms: _190  and  _191
REMARK   77  A    between atoms: _196  and  _198
REMARK   78  A    between atoms: _198  and  _199
REMARK   79  A    between atoms: _198  and  _201
REMARK   80  A    between atoms: _204  and  _206
REMARK   81  A    between atoms: _206  and  _207
REMARK   82  A    between atoms: _206  and  _209
REMARK   83  A    between atoms: _209  and  _210
REMARK   84  A    between atoms: _215  and  _216
REMARK   85  A    between atoms: _218  and  _220
REMARK   86  A    between atoms: _220  and  _221
REMARK   87  A    between atoms: _220  and  _223
REMARK   88  A    between atoms: _223  and  _224
REMARK   89  A    between atoms: _227  and  _229
REMARK   90  A    between atoms: _229  and  _230
REMARK   91  A    between atoms: _232  and  _234
REMARK   92  A    between atoms: _234  and  _235
REMARK   93  A    between atoms: _234  and  _237
REMARK   94  A    between atoms: _237  and  _238
REMARK   95  A    between atoms: _241  and  _243
REMARK   96  A    between atoms: _243  and  _244
REMARK   97  A    between atoms: _247  and  _249
REMARK   98  A    between atoms: _249  and  _250
REMARK   99  A    between atoms: _249  and  _252
REMARK  100  A    between atoms: _252  and  _253
REMARK  101  A    between atoms: _257  and  _258
REMARK  102  A    between atoms: _263  and  _265
REMARK  103  A    between atoms: _265  and  _266
REMARK  104  A    between atoms: _265  and  _268
REMARK  105  A    between atoms: _268  and  _269
REMARK  106  A    between atoms: _271  and  _273
REMARK  107  A    between atoms: _273  and  _274
REMARK  108  A    between atoms: _273  and  _276
REMARK  109  A    between atoms: _276  and  _277
REMARK  110  A    between atoms: _279  and  _281
REMARK  111  A    between atoms: _281  and  _282
REMARK  112  A    between atoms: _284  and  _286
REMARK  113  A    between atoms: _286  and  _287
REMARK  114  A    between atoms: _286  and  _289
REMARK  115  A    between atoms: _289  and  _290
REMARK  116  A    between atoms: _293  and  _295
REMARK  117  A    between atoms: _295  and  _296
REMARK  118  A    between atoms: _299  and  _301
REMARK  119  A    between atoms: _301  and  _302
REMARK  120  A    between atoms: _301  and  _304
REMARK  121  A    between atoms: _304  and  _305
REMARK  122  A    between atoms: _310  and  _311
REMARK  123  A    between atoms: _313  and  _315
REMARK  124  A    between atoms: _315  and  _316
REMARK  125  A    between atoms: _315  and  _318
REMARK  126  A    between atoms: _318  and  _319
REMARK  127  A    between atoms: _322  and  _324
REMARK  128  A    between atoms: _324  and  _325
REMARK  129  A    between atoms: _328  and  _330
REMARK  130  A    between atoms: _330  and  _331
REMARK  131  A    between atoms: _330  and  _333
REMARK  132  A    between atoms: _333  and  _334
REMARK  133  A    between atoms: _337  and  _339
REMARK  134  A    between atoms: _339  and  _340
REMARK  135  A    between atoms: _339  and  _342
REMARK  136  A    between atoms: _342  and  _343
REMARK  137  A    between atoms: _343  and  _344
REMARK  138  A    between atoms: _344  and  _345
REMARK  139  A    between atoms: _345  and  _346
REMARK  140  A    between atoms: _350  and  _352
REMARK  141  A    between atoms: _352  and  _353
REMARK  142  A    between atoms: _352  and  _355
REMARK  143  A    between atoms: _355  and  _356
REMARK  144  A    between atoms: _358  and  _360
REMARK  145  A    between atoms: _360  and  _361
REMARK  146  A    between atoms: _363  and  _365
REMARK  147  A    between atoms: _365  and  _366
REMARK  148  A    between atoms: _365  and  _368
REMARK  149  A    between atoms: _368  and  _369
REMARK  150  A    between atoms: _372  and  _374
REMARK  151  A    between atoms: _374  and  _375
REMARK  152  A    between atoms: _374  and  _377
REMARK  153  A    between atoms: _377  and  _378
REMARK  154  A    between atoms: _381  and  _383
REMARK  155  A    between atoms: _383  and  _384
REMARK  156  A    between atoms: _387  and  _389
REMARK  157  A    between atoms: _389  and  _390
REMARK  158  A    between atoms: _389  and  _392
REMARK  159  A    between atoms: _392  and  _393
REMARK  160  A    between atoms: _393  and  _394
REMARK  161  A    between atoms: _394  and  _395
REMARK  162  A    between atoms: _404  and  _406
REMARK  163  A    between atoms: _406  and  _407
REMARK  164  A    between atoms: _409  and  _411
REMARK  165  A    between atoms: _411  and  _412
REMARK  166  A    between atoms: _411  and  _414
REMARK  167  A    between atoms: _414  and  _415
REMARK  168  A    between atoms: _421  and  _423
REMARK  169  A    between atoms: _423  and  _424
REMARK  170  A    between atoms: _423  and  _426
REMARK  171  A    between atoms: _426  and  _427
REMARK  172  A    between atoms: _430  and  _432
REMARK  173  A    between atoms: _432  and  _433
REMARK  174  A    between atoms: _432  and  _435
REMARK  175  A    between atoms: _435  and  _436
REMARK  176  A    between atoms: _441  and  _443
REMARK  177  A    between atoms: _443  and  _444
REMARK  178  A    between atoms: _443  and  _446
REMARK  179  A    between atoms: _446  and  _447
REMARK  180  A    between atoms: _450  and  _452
REMARK  181  A    between atoms: _452  and  _453
REMARK  182  A    between atoms: _452  and  _455
REMARK  183  A    between atoms: _455  and  _456
REMARK  184  A    between atoms: _461  and  _462
REMARK  185  A    between atoms: _464  and  _466
REMARK  186  A    between atoms: _466  and  _467
REMARK  187  A    between atoms: _466  and  _469
REMARK  188  A    between atoms: _469  and  _470
REMARK  189  A    between atoms: _470  and  _471
REMARK  190  A    between atoms: _474  and  _476
REMARK  191  A    between atoms: _476  and  _477
REMARK  192  A    between atoms: _476  and  _479
REMARK  193  A    between atoms: _479  and  _480
REMARK  194  A    between atoms: _483  and  _485
REMARK  195  A    between atoms: _485  and  _486
REMARK  196  A    between atoms: _488  and  _490
REMARK  197  A    between atoms: _490  and  _491
REMARK  198  A    between atoms: _493  and  _495
REMARK  199  A    between atoms: _495  and  _496
REMARK  200  A    between atoms: _495  and  _498
REMARK  201  A    between atoms: _498  and  _499
REMARK  202  A    between atoms: _499  and  _500
REMARK  203  A    between atoms: _505  and  _507
REMARK  204  A    between atoms: _507  and  _508
REMARK  205  A    between atoms: _511  and  _513
REMARK  206  A    between atoms: _513  and  _514
REMARK  207  A    between atoms: _513  and  _516
REMARK  208  A    between atoms: _516  and  _517
REMARK  209  A    between atoms: _520  and  _522
REMARK  210  A    between atoms: _522  and  _523
REMARK  211  A    between atoms: _522  and  _525
REMARK  212  A    between atoms: _525  and  _526
REMARK  213  A    between atoms: _526  and  _527
REMARK  214  A    between atoms: _532  and  _534
REMARK  215  A    between atoms: _534  and  _535
REMARK  216  A    between atoms: _534  and  _537
REMARK  217  A    between atoms: _537  and  _538
REMARK  218  A    between atoms: _541  and  _543
REMARK  219  A    between atoms: _543  and  _544
REMARK  220  A    between atoms: _543  and  _546
REMARK  221  A    between atoms: _546  and  _547
REMARK  222  A    between atoms: _547  and  _548
REMARK  223  A    between atoms: _548  and  _549
REMARK                            x       y       z     vdW  Elec       q    Type
REMARK                         _______ _______ _______ _____ _____    ______ ____
ROOT
ATOM      1  CB  ARG A   2     -16.505  14.259 -10.158  0.00  0.00    +0.031 C 
ENDROOT
BRANCH   1   2
ATOM      2  CA  ARG A   2     -17.090  14.240  -8.744  0.00  0.00    +0.137 C 
BRANCH   2   5
ATOM      3  C   ALA A   1     -16.465  15.022  -6.543  0.00  0.00    +0.238 C 
ATOM      4  O   ALA A   1     -17.595  14.818  -6.081  0.00  0.00    -0.274 OA
ATOM      5  N   ARG A   2     -16.127  14.772  -7.803  0.00  0.00    -0.298 N 
ATOM      6  H   ARG A   2     -15.154  14.962  -8.119  0.00  0.00    +0.150 HD
BRANCH   3   7
ATOM      7  CA  ALA A   1     -15.357  15.575  -5.677  0.00  0.00    +0.145 C 
ATOM      8  CB  ALA A   1     -15.172  17.084  -5.946  0.00  0.00    +0.028 C 
BRANCH   7   9
ATOM      9  N   ALA A   1     -14.107  14.850  -5.896  0.00  0.00    -0.238 NA
ATOM     10  H   ALA A   1     -13.305  15.346  -6.336  0.00  0.00    +0.142 HD
ENDBRANCH   7   9
ENDBRANCH   3   7
ENDBRANCH   2   5
BRANCH   2  11
ATOM     11  C   ARG A   2     -17.521  12.838  -8.350  0.00  0.00    +0.227 C 
ATOM     12  O   ARG A   2     -18.715  12.523  -8.364  0.00  0.00    -0.286 OA
ENDBRANCH   2  11
ENDBRANCH   1   2
BRANCH   1  13
ATOM     13  CG  ARG A   2     -16.314  15.676 -10.658  0.00  0.00    +0.045 C 
BRANCH  13  14
ATOM     14  CD  ARG A   2     -15.614  15.725 -11.995  0.00  0.00    +0.174 C 
BRANCH  14  15
ATOM     15  NE  ARG A   2     -15.607  17.085 -12.523  0.00  0.00    -0.265 N 
ATOM     16  HE  ARG A   2     -16.297  17.765 -12.145  0.00  0.00    +0.259 HD
ATOM     17  CZ  ARG A   2     -14.765  17.498 -13.461  0.00  0.00    +0.342 C 
ATOM     18  NH2 ARG A   2     -14.808  18.752 -13.895  0.00  0.00    -0.292 N 
ATOM     19 HH21 ARG A   2     -15.504  19.416 -13.499  0.00  0.00    +0.255 HD
ATOM     20 HH22 ARG A   2     -14.146  19.071 -14.631  0.00  0.00    +0.255 HD
ATOM     21  NH1 ARG A   2     -13.876  16.649 -13.961  0.00  0.00    -0.292 N 
ATOM     22 HH11 ARG A   2     -13.843  15.668 -13.617  0.00  0.00    +0.255 HD
ATOM     23 HH12 ARG A   2     -13.212  16.965 -14.697  0.00  0.00    +0.255 HD
ENDBRANCH  14  15
ENDBRANCH  13  14
ENDBRANCH   1  13
TORSDOF 8
REMARK  Name = ../refined-set-2016/4r74/4r74_pocket.pdb
REMARK  223 active torsions:
REMARK  status: ('A' for Active; 'I' for Inactive)
REMARK    1  A    between atoms: _1  and  _3
REMARK    2  A    between atoms: _3  and  _4
REMARK    3  A    between atoms: _3  and  _6
REMARK    4  A    between atoms: _6  and  _7
REMARK    5  A    between atoms: _9  and  _11
REMARK    6  A    between atoms: _11  and  _12
REMARK    7  A    between atoms: _15  and  _17
REMARK    8  A    between atoms: _17  and  _18
REMARK    9  A    between atoms: _17  and  _20
REMARK   10  A    between atoms: _20  and  _21
REMARK   11  A    between atoms: _24  and  _26
REMARK   12  A    between atoms: _26  and  _27
REMARK   13  A    between atoms: _26  and  _29
REMARK   14  A    between atoms: _29  and  _30
REMARK   15  A    between atoms: _35  and  _37
REMARK   16  A    between atoms: _37  and  _38
REMARK   17  A    between atoms: _37  and  _40
REMARK   18  A    between atoms: _40  and  _41
REMARK   19  A    between atoms: _41  and  _42
REMARK   20  A    between atoms: _44  and  _46
REMARK   21  A    between atoms: _46  and  _47
REMARK   22  A    between atoms: _46  and  _49
REMARK   23  A    between atoms: _49  and  _50
REMARK   24  A    between atoms: _50  and  _51
REMARK   25  A    between atoms: _51  and  _52
REMARK   26  A    between atoms: _61  and  _63
REMARK   27  A    between atoms: _63  and  _64
REMARK   28  A    between atoms: _63  and  _66
REMARK   29  A    between atoms: _66  and  _67
REMARK   30  A    between atoms: _72  and  _74
REMARK   31  A    between atoms: _74  and  _75
REMARK   32  A    between atoms: _77  and  _79
REMARK   33  A    between atoms: _79  and  _80
REMARK   34  A    between atoms: _79  and  _82
REMARK   35  A    between atoms: _82  and  _83
REMARK   36  A    between atoms: _85  and  _87
REMARK   37  A    between atoms: _87  and  _88
REMARK   38  A    between atoms: _90  and  _92
REMARK   39  A    between atoms: _92  and  _93
REMARK   40  A    between atoms: _92  and  _95
REMARK   41  A    between atoms: _95  and  _96
REMARK   42  A    between atoms: _98  and  _100
REMARK   43  A    between atoms: _100  and  _101
REMARK   44  A    between atoms: _100  and  _103
REMARK   45  A    between atoms: _103  and  _104
REMARK   46  A    between atoms: _107  and  _109
REMARK   47  A    between atoms: _109  and  _110
REMARK   48  A    between atoms: _109  and  _112
REMARK   49  A    between atoms: _112  and  _113
REMARK   50  A    between atoms: _119  and  _121
REMARK   51  A    between atoms: _121  and  _122
REMARK   52  A    between atoms: _121  and  _124
REMARK   53  A    between atoms: _124  and  _125
REMARK   54  A    between atoms: _135  and  _137
REMARK   55  A    between atoms: _137  and  _138
REMARK   56  A    between atoms: _137  and  _140
REMARK   57  A    between atoms: _140  and  _141
REMARK   58  A    between atoms: _146  and  _147
REMARK   59  A    between atoms: _149  and  _151
REMARK   60  A    between atoms: _151  and  _152
REMARK   61  A    between atoms: _154  and  _156
REMARK   62  A    between atoms: _156  and  _157
REMARK   63  A    between atoms: _159  and  _161
REMARK   64  A    between atoms: _161  and  _162
REMARK   65  A    between atoms: _161  and  _164
REMARK   66  A    between atoms: _164  and  _165
REMARK   67  A    between atoms: _168  and  _170
REMARK   68  A    between atoms: _170  and  _171
REMARK   69  A    between atoms: _170  and  _173
REMARK   70  A    between atoms: _173  and  _174
REMARK   71  A    between atoms: _178  and  _179
REMARK   72  A    between atoms: _184  and  _186
REMARK   73  A    between atoms: _186  and  _187
REMARK   74  A    between atoms: _186  and  _189
REMARK   75  A    between atoms: _189  and  _190
REMARK   76  A    between atoms: _190  and  _191
REMARK   77  A    between atoms: _196  and  _198
REMARK   78  A    between atoms: _198  and  _199
REMARK   79  A    between atoms: _198  and  _201
REMARK   80  A    between atoms: _204  and  _206
REMARK   81  A    between atoms: _206  and  _207
REMARK   82  A    between atoms: _206  and  _209
REMARK   83  A    between atoms: _209  and  _210
REMARK   84  A    between atoms: _215  and  _216
REMARK   85  A    between atoms: _218  and  _220
REMARK   86  A    between atoms: _220  and  _221
REMARK   87  A    between atoms: _220  and  _223
REMARK   88  A    between atoms: _223  and  _224
REMARK   89  A    between atoms: _227  and  _229
REMARK   90  A    between atoms: _229  and  _230
REMARK   91  A    between atoms: _232  and  _234
REMARK   92  A    between atoms: _234  and  _235
REMARK   93  A    between atoms: _234  and  _237
REMARK   94  A    between atoms: _237  and  _238
REMARK   95  A    between atoms: _241  and  _243
REMARK   96  A    between atoms: _243  and  _244
REMARK   97  A    between atoms: _247  and  _249
REMARK   98  A    between atoms: _249  and  _250
REMARK   99  A    between atoms: _249  and  _252
REMARK  100  A    between atoms: _252  and  _253
REMARK  101  A    between atoms: _257  and  _258
REMARK  102  A    between atoms: _263  and  _265
REMARK  103  A    between atoms: _265  and  _266
REMARK  104  A    between atoms: _265  and  _268
REMARK  105  A    between atoms: _268  and  _269
REMARK  106  A    between atoms: _271  and  _273
REMARK  107  A    between atoms: _273  and  _274
REMARK  108  A    between atoms: _273  and  _276
REMARK  109  A    between atoms: _276  and  _277
REMARK  110  A    between atoms: _279  and  _281
REMARK  111  A    between atoms: _281  and  _282
REMARK  112  A    between atoms: _284  and  _286
REMARK  113  A    between atoms: _286  and  _287
REMARK  114  A    between atoms: _286  and  _289
REMARK  115  A    between atoms: _289  and  _290
REMARK  116  A    between atoms: _293  and  _295
REMARK  117  A    between atoms: _295  and  _296
REMARK  118  A    between atoms: _299  and  _301
REMARK  119  A    between atoms: _301  and  _302
REMARK  120  A    between atoms: _301  and  _304
REMARK  121  A    between atoms: _304  and  _305
REMARK  122  A    between atoms: _310  and  _311
REMARK  123  A    between atoms: _313  and  _315
REMARK  124  A    between atoms: _315  and  _316
REMARK  125  A    between atoms: _315  and  _318
REMARK  126  A    between atoms: _318  and  _319
REMARK  127  A    between atoms: _322  and  _324
REMARK  128  A    between atoms: _324  and  _325
REMARK  129  A    between atoms: _328  and  _330
REMARK  130  A    between atoms: _330  and  _331
REMARK  131  A    between atoms: _330  and  _333
REMARK  132  A    between atoms: _333  and  _334
REMARK  133  A    between atoms: _337  and  _339
REMARK  134  A    between atoms: _339  and  _340
REMARK  135  A    between atoms: _339  and  _342
REMARK  136  A    between atoms: _342  and  _343
REMARK  137  A    between atoms: _343  and  _344
REMARK  138  A    between atoms: _344  and  _345
REMARK  139  A    between atoms: _345  and  _346
REMARK  140  A    between atoms: _350  and  _352
REMARK  141  A    between atoms: _352  and  _353
REMARK  142  A    between atoms: _352  and  _355
REMARK  143  A    between atoms: _355  and  _356
REMARK  144  A    between atoms: _358  and  _360
REMARK  145  A    between atoms: _360  and  _361
REMARK  146  A    between atoms: _363  and  _365
REMARK  147  A    between atoms: _365  and  _366
REMARK  148  A    between atoms: _365  and  _368
REMARK  149  A    between atoms: _368  and  _369
REMARK  150  A    between atoms: _372  and  _374
REMARK  151  A    between atoms: _374  and  _375
REMARK  152  A    between atoms: _374  and  _377
REMARK  153  A    between atoms: _377  and  _378
REMARK  154  A    between atoms: _381  and  _383
REMARK  155  A    between atoms: _383  and  _384
REMARK  156  A    between atoms: _387  and  _389
REMARK  157  A    between atoms: _389  and  _390
REMARK  158  A    between atoms: _389  and  _392
REMARK  159  A    between atoms: _392  and  _393
REMARK  160  A    between atoms: _393  and  _394
REMARK  161  A    between atoms: _394  and  _395
REMARK  162  A    between atoms: _404  and  _406
REMARK  163  A    between atoms: _406  and  _407
REMARK  164  A    between atoms: _409  and  _411
REMARK  165  A    between atoms: _411  and  _412
REMARK  166  A    between atoms: _411  and  _414
REMARK  167  A    between atoms: _414  and  _415
REMARK  168  A    between atoms: _421  and  _423
REMARK  169  A    between atoms: _423  and  _424
REMARK  170  A    between atoms: _423  and  _426
REMARK  171  A    between atoms: _426  and  _427
REMARK  172  A    between atoms: _430  and  _432
REMARK  173  A    between atoms: _432  and  _433
REMARK  174  A    between atoms: _432  and  _435
REMARK  175  A    between atoms: _435  and  _436
REMARK  176  A    between atoms: _441  and  _443
REMARK  177  A    between atoms: _443  and  _444
REMARK  178  A    between atoms: _443  and  _446
REMARK  179  A    between atoms: _446  and  _447
REMARK  180  A    between atoms: _450  and  _452
REMARK  181  A    between atoms: _452  and  _453
REMARK  182  A    between atoms: _452  and  _455
REMARK  183  A    between atoms: _455  and  _456
REMARK  184  A    between atoms: _461  and  _462
REMARK  185  A    between atoms: _464  and  _466
REMARK  186  A    between atoms: _466  and  _467
REMARK  187  A    between atoms: _466  and  _469
REMARK  188  A    between atoms: _469  and  _470
REMARK  189  A    between atoms: _470  and  _471
REMARK  190  A    between atoms: _474  and  _476
REMARK  191  A    between atoms: _476  and  _477
REMARK  192  A    between atoms: _476  and  _479
REMARK  193  A    between atoms: _479  and  _480
REMARK  194  A    between atoms: _483  and  _485
REMARK  195  A    between atoms: _485  and  _486
REMARK  196  A    between atoms: _488  and  _490
REMARK  197  A    between atoms: _490  and  _491
REMARK  198  A    between atoms: _493  and  _495
REMARK  199  A    between atoms: _495  and  _496
REMARK  200  A    between atoms: _495  and  _498
REMARK  201  A    between atoms: _498  and  _499
REMARK  202  A    between atoms: _499  and  _500
REMARK  203  A    between atoms: _505  and  _507
REMARK  204  A    between atoms: _507  and  _508
REMARK  205  A    between atoms: _511  and  _513
REMARK  206  A    between atoms: _513  and  _514
REMARK  207  A    between atoms: _513  and  _516
REMARK  208  A    between atoms: _516  and  _517
REMARK  209  A    between atoms: _520  and  _522
REMARK  210  A    between atoms: _522  and  _523
REMARK  211  A    between atoms: _522  and  _525
REMARK  212  A    between atoms: _525  and  _526
REMARK  213  A    between atoms: _526  and  _527
REMARK  214  A    between atoms: _532  and  _534
REMARK  215  A    between atoms: _534  and  _535
REMARK  216  A    between atoms: _534  and  _537
REMARK  217  A    between atoms: _537  and  _538
REMARK  218  A    between atoms: _541  and  _543
REMARK  219  A    between atoms: _543  and  _544
REMARK  220  A    between atoms: _543  and  _546
REMARK  221  A    between atoms: _546  and  _547
REMARK  222  A    between atoms: _547  and  _548
REMARK  223  A    between atoms: _548  and  _549
REMARK                            x       y       z     vdW  Elec       q    Type
REMARK                         _______ _______ _______ _____ _____    ______ ____
ROOT
ATOM      1  CA  HIS A   4     -15.324  24.812  -3.227  0.00  0.00    +0.155 C 
ENDROOT
BRANCH   1   2
ATOM      2  C   HIS A   4     -15.804  23.889  -4.372  0.00  0.00    +0.241 C 
ATOM      3  N   ASP A   5     -14.989  22.907  -4.757  0.00  0.00    -0.297 N 
ATOM      4  H   ASP A   5     -14.036  22.832  -4.349  0.00  0.00    +0.150 HD
ATOM      5  O   HIS A   4     -16.908  24.067  -4.909  0.00  0.00    -0.273 OA
BRANCH   3   6
ATOM      6  CA  ASP A   5     -15.438  21.933  -5.757  0.00  0.00    +0.160 C 
BRANCH   6   7
ATOM      7  C   ASP A   5     -16.590  21.096  -5.187  0.00  0.00    +0.241 C 
ATOM      8  N   TYR A   6     -16.462  20.678  -3.930  0.00  0.00    -0.298 N 
ATOM      9  H   TYR A   6     -15.583  20.881  -3.412  0.00  0.00    +0.150 HD
ATOM     10  O   ASP A   5     -17.587  20.851  -5.871  0.00  0.00    -0.273 OA
BRANCH   8  11
ATOM     11  CA  TYR A   6     -17.532  19.939  -3.263  0.00  0.00    +0.141 C 
BRANCH  11  12
ATOM     12  C   TYR A   6     -18.765  20.829  -3.046  0.00  0.00    +0.227 C 
ATOM     13  O   TYR A   6     -19.905  20.360  -3.155  0.00  0.00    -0.286 OA
ENDBRANCH  11  12
BRANCH  11  14
ATOM     14  CB  TYR A   6     -17.033  19.350  -1.933  0.00  0.00    +0.054 C 
BRANCH  14  15
ATOM     15  CG  TYR A   6     -15.891  18.378  -2.149  0.00  0.00    -0.020 A 
ATOM     16  CD2 TYR A   6     -16.116  17.005  -2.254  0.00  0.00    -0.001 A 
ATOM     17  CE2 TYR A   6     -15.066  16.121  -2.466  0.00  0.00    +0.036 A 
ATOM     18  CZ  TYR A   6     -13.778  16.611  -2.596  0.00  0.00    +0.134 A 
ATOM     19  CE1 TYR A   6     -13.536  17.969  -2.498  0.00  0.00    +0.036 A 
ATOM     20  CD1 TYR A   6     -14.583  18.841  -2.280  0.00  0.00    -0.001 A 
BRANCH  18  21
ATOM     21  OH  TYR A   6     -12.712  15.756  -2.840  0.00  0.00    -0.506 OA
ATOM     22  HH  TYR A   6     -12.288  15.997  -3.701  0.00  0.00    +0.292 HD
ENDBRANCH  18  21
ENDBRANCH  14  15
ENDBRANCH  11  14
ENDBRANCH   8  11
ENDBRANCH   6   7
BRANCH   6  23
ATOM     23  CB  ASP A   5     -14.287  21.029  -6.217  0.00  0.00    +0.143 C 
BRANCH  23  24
ATOM     24  CG  ASP A   5     -13.212  21.797  -6.993  0.00  0.00    +0.367 C 
ATOM     25  OD2 ASP A   5     -12.008  21.475  -6.845  0.00  0.00    -0.246 OA
ATOM     26  OD1 ASP A   5     -13.579  22.733  -7.730  0.00  0.00    -0.246 OA
ENDBRANCH  23  24
ENDBRANCH   6  23
ENDBRANCH   3   6
ENDBRANCH   1   2
BRANCH   1  29
ATOM     27  C   LEU A   3     -14.872  23.047  -1.610  0.00  0.00    +0.241 C 
ATOM     28  O   LEU A   3     -16.014  22.621  -1.726  0.00  0.00    -0.273 OA
ATOM     29  N   HIS A   4     -14.445  24.125  -2.266  0.00  0.00    -0.297 N 
ATOM     30  H   HIS A   4     -13.484  24.484  -2.098  0.00  0.00    +0.150 HD
BRANCH  27  31
ATOM     31  CA  LEU A   3     -13.888  22.333  -0.677  0.00  0.00    +0.149 C 
BRANCH  31  33
ATOM     32  C   PHE A   2     -12.063  21.866  -2.223  0.00  0.00    +0.241 C 
ATOM     33  N   LEU A   3     -12.492  22.428  -1.097  0.00  0.00    -0.297 N 
ATOM     34  H   LEU A   3     -11.817  22.948  -0.501  0.00  0.00    +0.150 HD
ATOM     35  O   PHE A   2     -12.815  21.418  -3.083  0.00  0.00    -0.273 OA
BRANCH  32  36
ATOM     36  CA  PHE A   2     -10.553  21.760  -2.371  0.00  0.00    +0.153 C 
BRANCH  36  39
ATOM     37  C   GLY A   1      -9.918  19.498  -1.820  0.00  0.00    +0.240 C 
ATOM     38  O   GLY A   1      -9.926  19.772  -0.618  0.00  0.00    -0.274 OA
ATOM     39  N   PHE A   2     -10.213  20.398  -2.754  0.00  0.00    -0.297 N 
ATOM     40  H   PHE A   2     -10.201  20.128  -3.758  0.00  0.00    +0.150 HD
BRANCH  37  41
ATOM     41  CA  GLY A   1      -9.579  18.097  -2.298  0.00  0.00    +0.169 C 
BRANCH  41  42
ATOM     42  N   GLY A   1      -9.937  17.086  -1.306  0.00  0.00    -0.236 NA
ATOM     43  H   GLY A   1     -10.295  17.388  -0.377  0.00  0.00    +0.142 HD
ENDBRANCH  41  42
ENDBRANCH  37  41
ENDBRANCH  36  39
BRANCH  36  44
ATOM     44  CB  PHE A   2      -9.990  22.758  -3.379  0.00  0.00    +0.055 C 
BRANCH  44  45
ATOM     45  CG  PHE A   2      -8.479  22.773  -3.410  0.00  0.00    -0.020 A 
ATOM     46  CD2 PHE A   2      -7.755  22.871  -2.222  0.00  0.00    -0.004 A 
ATOM     47  CE2 PHE A   2      -6.355  22.859  -2.238  0.00  0.00    -0.000 A 
ATOM     48  CZ  PHE A   2      -5.687  22.724  -3.441  0.00  0.00    -0.000 A 
ATOM     49  CE1 PHE A   2      -6.396  22.613  -4.624  0.00  0.00    -0.000 A 
ATOM     50  CD1 PHE A   2      -7.789  22.624  -4.603  0.00  0.00    -0.004 A 
ENDBRANCH  44  45
ENDBRANCH  36  44
ENDBRANCH  32  36
ENDBRANCH  31  33
BRANCH  31  51
ATOM     51  CB  LEU A   3     -14.025  22.870   0.749  0.00  0.00    +0.029 C 
BRANCH  51  52
ATOM     52  CG  LEU A   3     -13.357  21.975   1.802  0.00  0.00    +0.002 C 
ATOM     53  CD2 LEU A   3     -13.476  22.593   3.210  0.00  0.00    +0.000 C 
ATOM     54  CD1 LEU A   3     -13.943  20.556   1.772  0.00  0.00    +0.000 C 
ENDBRANCH  51  52
ENDBRANCH  31  51
ENDBRANCH  27  31
ENDBRANCH   1  29
BRANCH   1  55
ATOM     55  CB  HIS A   4     -14.622  26.050  -3.798  0.00  0.00    +0.076 C 
BRANCH  55  56
ATOM     56  CG  HIS A   4     -13.333  25.751  -4.504  0.00  0.00    +0.082 A 
ATOM     57  ND1 HIS A   4     -12.100  25.951  -3.922  0.00  0.00    -0.227 NA
ATOM     58  CE1 HIS A   4     -11.151  25.598  -4.772  0.00  0.00    +0.199 A 
ATOM     59  NE2 HIS A   4     -11.722  25.203  -5.896  0.00  0.00    -0.221 NA
ATOM     60  CD2 HIS A   4     -13.087  25.286  -5.753  0.00  0.00    +0.115 A 
ENDBRANCH  55  56
ENDBRANCH   1  55
TORSDOF 23
REMARK  Name = ../refined-set-2016/4r74/4r74_pocket.pdb
REMARK  223 active torsions:
REMARK  status: ('A' for Active; 'I' for Inactive)
REMARK    1  A    between atoms: _1  and  _3
REMARK    2  A    between atoms: _3  and  _4
REMARK    3  A    between atoms: _3  and  _6
REMARK    4  A    between atoms: _6  and  _7
REMARK    5  A    between atoms: _9  and  _11
REMARK    6  A    between atoms: _11  and  _12
REMARK    7  A    between atoms: _15  and  _17
REMARK    8  A    between atoms: _17  and  _18
REMARK    9  A    between atoms: _17  and  _20
REMARK   10  A    between atoms: _20  and  _21
REMARK   11  A    between atoms: _24  and  _26
REMARK   12  A    between atoms: _26  and  _27
REMARK   13  A    between atoms: _26  and  _29
REMARK   14  A    between atoms: _29  and  _30
REMARK   15  A    between atoms: _35  and  _37
REMARK   16  A    between atoms: _37  and  _38
REMARK   17  A    between atoms: _37  and  _40
REMARK   18  A    between atoms: _40  and  _41
REMARK   19  A    between atoms: _41  and  _42
REMARK   20  A    between atoms: _44  and  _46
REMARK   21  A    between atoms: _46  and  _47
REMARK   22  A    between atoms: _46  and  _49
REMARK   23  A    between atoms: _49  and  _50
REMARK   24  A    between atoms: _50  and  _51
REMARK   25  A    between atoms: _51  and  _52
REMARK   26  A    between atoms: _61  and  _63
REMARK   27  A    between atoms: _63  and  _64
REMARK   28  A    between atoms: _63  and  _66
REMARK   29  A    between atoms: _66  and  _67
REMARK   30  A    between atoms: _72  and  _74
REMARK   31  A    between atoms: _74  and  _75
REMARK   32  A    between atoms: _77  and  _79
REMARK   33  A    between atoms: _79  and  _80
REMARK   34  A    between atoms: _79  and  _82
REMARK   35  A    between atoms: _82  and  _83
REMARK   36  A    between atoms: _85  and  _87
REMARK   37  A    between atoms: _87  and  _88
REMARK   38  A    between atoms: _90  and  _92
REMARK   39  A    between atoms: _92  and  _93
REMARK   40  A    between atoms: _92  and  _95
REMARK   41  A    between atoms: _95  and  _96
REMARK   42  A    between atoms: _98  and  _100
REMARK   43  A    between atoms: _100  and  _101
REMARK   44  A    between atoms: _100  and  _103
REMARK   45  A    between atoms: _103  and  _104
REMARK   46  A    between atoms: _107  and  _109
REMARK   47  A    between atoms: _109  and  _110
REMARK   48  A    between atoms: _109  and  _112
REMARK   49  A    between atoms: _112  and  _113
REMARK   50  A    between atoms: _119  and  _121
REMARK   51  A    between atoms: _121  and  _122
REMARK   52  A    between atoms: _121  and  _124
REMARK   53  A    between atoms: _124  and  _125
REMARK   54  A    between atoms: _135  and  _137
REMARK   55  A    between atoms: _137  and  _138
REMARK   56  A    between atoms: _137  and  _140
REMARK   57  A    between atoms: _140  and  _141
REMARK   58  A    between atoms: _146  and  _147
REMARK   59  A    between atoms: _149  and  _151
REMARK   60  A    between atoms: _151  and  _152
REMARK   61  A    between atoms: _154  and  _156
REMARK   62  A    between atoms: _156  and  _157
REMARK   63  A    between atoms: _159  and  _161
REMARK   64  A    between atoms: _161  and  _162
REMARK   65  A    between atoms: _161  and  _164
REMARK   66  A    between atoms: _164  and  _165
REMARK   67  A    between atoms: _168  and  _170
REMARK   68  A    between atoms: _170  and  _171
REMARK   69  A    between atoms: _170  and  _173
REMARK   70  A    between atoms: _173  and  _174
REMARK   71  A    between atoms: _178  and  _179
REMARK   72  A    between atoms: _184  and  _186
REMARK   73  A    between atoms: _186  and  _187
REMARK   74  A    between atoms: _186  and  _189
REMARK   75  A    between atoms: _189  and  _190
REMARK   76  A    between atoms: _190  and  _191
REMARK   77  A    between atoms: _196  and  _198
REMARK   78  A    between atoms: _198  and  _199
REMARK   79  A    between atoms: _198  and  _201
REMARK   80  A    between atoms: _204  and  _206
REMARK   81  A    between atoms: _206  and  _207
REMARK   82  A    between atoms: _206  and  _209
REMARK   83  A    between atoms: _209  and  _210
REMARK   84  A    between atoms: _215  and  _216
REMARK   85  A    between atoms: _218  and  _220
REMARK   86  A    between atoms: _220  and  _221
REMARK   87  A    between atoms: _220  and  _223
REMARK   88  A    between atoms: _223  and  _224
REMARK   89  A    between atoms: _227  and  _229
REMARK   90  A    between atoms: _229  and  _230
REMARK   91  A    between atoms: _232  and  _234
REMARK   92  A    between atoms: _234  and  _235
REMARK   93  A    between atoms: _234  and  _237
REMARK   94  A    between atoms: _237  and  _238
REMARK   95  A    between atoms: _241  and  _243
REMARK   96  A    between atoms: _243  and  _244
REMARK   97  A    between atoms: _247  and  _249
REMARK   98  A    between atoms: _249  and  _250
REMARK   99  A    between atoms: _249  and  _252
REMARK  100  A    between atoms: _252  and  _253
REMARK  101  A    between atoms: _257  and  _258
REMARK  102  A    between atoms: _263  and  _265
REMARK  103  A    between atoms: _265  and  _266
REMARK  104  A    between atoms: _265  and  _268
REMARK  105  A    between atoms: _268  and  _269
REMARK  106  A    between atoms: _271  and  _273
REMARK  107  A    between atoms: _273  and  _274
REMARK  108  A    between atoms: _273  and  _276
REMARK  109  A    between atoms: _276  and  _277
REMARK  110  A    between atoms: _279  and  _281
REMARK  111  A    between atoms: _281  and  _282
REMARK  112  A    between atoms: _284  and  _286
REMARK  113  A    between atoms: _286  and  _287
REMARK  114  A    between atoms: _286  and  _289
REMARK  115  A    between atoms: _289  and  _290
REMARK  116  A    between atoms: _293  and  _295
REMARK  117  A    between atoms: _295  and  _296
REMARK  118  A    between atoms: _299  and  _301
REMARK  119  A    between atoms: _301  and  _302
REMARK  120  A    between atoms: _301  and  _304
REMARK  121  A    between atoms: _304  and  _305
REMARK  122  A    between atoms: _310  and  _311
REMARK  123  A    between atoms: _313  and  _315
REMARK  124  A    between atoms: _315  and  _316
REMARK  125  A    between atoms: _315  and  _318
REMARK  126  A    between atoms: _318  and  _319
REMARK  127  A    between atoms: _322  and  _324
REMARK  128  A    between atoms: _324  and  _325
REMARK  129  A    between atoms: _328  and  _330
REMARK  130  A    between atoms: _330  and  _331
REMARK  131  A    between atoms: _330  and  _333
REMARK  132  A    between atoms: _333  and  _334
REMARK  133  A    between atoms: _337  and  _339
REMARK  134  A    between atoms: _339  and  _340
REMARK  135  A    between atoms: _339  and  _342
REMARK  136  A    between atoms: _342  and  _343
REMARK  137  A    between atoms: _343  and  _344
REMARK  138  A    between atoms: _344  and  _345
REMARK  139  A    between atoms: _345  and  _346
REMARK  140  A    between atoms: _350  and  _352
REMARK  141  A    between atoms: _352  and  _353
REMARK  142  A    between atoms: _352  and  _355
REMARK  143  A    between atoms: _355  and  _356
REMARK  144  A    between atoms: _358  and  _360
REMARK  145  A    between atoms: _360  and  _361
REMARK  146  A    between atoms: _363  and  _365
REMARK  147  A    between atoms: _365  and  _366
REMARK  148  A    between atoms: _365  and  _368
REMARK  149  A    between atoms: _368  and  _369
REMARK  150  A    between atoms: _372  and  _374
REMARK  151  A    between atoms: _374  and  _375
REMARK  152  A    between atoms: _374  and  _377
REMARK  153  A    between atoms: _377  and  _378
REMARK  154  A    between atoms: _381  and  _383
REMARK  155  A    between atoms: _383  and  _384
REMARK  156  A    between atoms: _387  and  _389
REMARK  157  A    between atoms: _389  and  _390
REMARK  158  A    between atoms: _389  and  _392
REMARK  159  A    between atoms: _392  and  _393
REMARK  160  A    between atoms: _393  and  _394
REMARK  161  A    between atoms: _394  and  _395
REMARK  162  A    between atoms: _404  and  _406
REMARK  163  A    between atoms: _406  and  _407
REMARK  164  A    between atoms: _409  and  _411
REMARK  165  A    between atoms: _411  and  _412
REMARK  166  A    between atoms: _411  and  _414
REMARK  167  A    between atoms: _414  and  _415
REMARK  168  A    between atoms: _421  and  _423
REMARK  169  A    between atoms: _423  and  _424
REMARK  170  A    between atoms: _423  and  _426
REMARK  171  A    between atoms: _426  and  _427
REMARK  172  A    between atoms: _430  and  _432
REMARK  173  A    between atoms: _432  and  _433
REMARK  174  A    between atoms: _432  and  _435
REMARK  175  A    between atoms: _435  and  _436
REMARK  176  A    between atoms: _441  and  _443
REMARK  177  A    between atoms: _443  and  _444
REMARK  178  A    between atoms: _443  and  _446
REMARK  179  A    between atoms: _446  and  _447
REMARK  180  A    between atoms: _450  and  _452
REMARK  181  A    between atoms: _452  and  _453
REMARK  182  A    between atoms: _452  and  _455
REMARK  183  A    between atoms: _455  and  _456
REMARK  184  A    between atoms: _461  and  _462
REMARK  185  A    between atoms: _464  and  _466
REMARK  186  A    between atoms: _466  and  _467
REMARK  187  A    between atoms: _466  and  _469
REMARK  188  A    between atoms: _469  and  _470
REMARK  189  A    between atoms: _470  and  _471
REMARK  190  A    between atoms: _474  and  _476
REMARK  191  A    between atoms: _476  and  _477
REMARK  192  A    between atoms: _476  and  _479
REMARK  193  A    between atoms: _479  and  _480
REMARK  194  A    between atoms: _483  and  _485
REMARK  195  A    between atoms: _485  and  _486
REMARK  196  A    between atoms: _488  and  _490
REMARK  197  A    between atoms: _490  and  _491
REMARK  198  A    between atoms: _493  and  _495
REMARK  199  A    between atoms: _495  and  _496
REMARK  200  A    between atoms: _495  and  _498
REMARK  201  A    between atoms: _498  and  _499
REMARK  202  A    between atoms: _499  and  _500
REMARK  203  A    between atoms: _505  and  _507
REMARK  204  A    between atoms: _507  and  _508
REMARK  205  A    between atoms: _511  and  _513
REMARK  206  A    between atoms: _513  and  _514
REMARK  207  A    between atoms: _513  and  _516
REMARK  208  A    between atoms: _516  and  _517
REMARK  209  A    between atoms: _520  and  _522
REMARK  210  A    between atoms: _522  and  _523
REMARK  211  A    between atoms: _522  and  _525
REMARK  212  A    between atoms: _525  and  _526
REMARK  213  A    between atoms: _526  and  _527
REMARK  214  A    between atoms: _532  and  _534
REMARK  215  A    between atoms: _534  and  _535
REMARK  216  A    between atoms: _534  and  _537
REMARK  217  A    between atoms: _537  and  _538
REMARK  218  A    between atoms: _541  and  _543
REMARK  219  A    between atoms: _543  and  _544
REMARK  220  A    between atoms: _543  and  _546
REMARK  221  A    between atoms: _546  and  _547
REMARK  222  A    between atoms: _547  and  _548
REMARK  223  A    between atoms: _548  and  _549
REMARK                            x       y       z     vdW  Elec       q    Type
REMARK                         _______ _______ _______ _____ _____    ______ ____
ROOT
ATOM      1  CA  LEU A   2      -3.703  30.111  -3.894  0.00  0.00    +0.149 C 
ENDROOT
BRANCH   1   4
ATOM      2  C   GLU A   1      -4.401  28.253  -2.492  0.00  0.00    +0.238 C 
ATOM      3  O   GLU A   1      -5.415  28.793  -2.058  0.00  0.00    -0.274 OA
ATOM      4  N   LEU A   2      -3.439  28.904  -3.132  0.00  0.00    -0.297 N 
ATOM      5  H   LEU A   2      -2.466  28.539  -3.087  0.00  0.00    +0.150 HD
BRANCH   2   6
ATOM      6  CA  GLU A   1      -4.189  26.762  -2.319  0.00  0.00    +0.145 C 
BRANCH   6   7
ATOM      7  N   GLU A   1      -4.890  26.316  -1.125  0.00  0.00    -0.238 NA
ATOM      8  H   GLU A   1      -5.904  26.095  -1.187  0.00  0.00    +0.142 HD
ENDBRANCH   6   7
BRANCH   6   9
ATOM      9  CB  GLU A   1      -4.693  26.035  -3.579  0.00  0.00    +0.038 C 
BRANCH   9  10
ATOM     10  CG  GLU A   1      -6.219  26.218  -3.802  0.00  0.00    +0.116 C 
BRANCH  10  11
ATOM     11  CD  GLU A   1      -6.702  25.912  -5.226  0.00  0.00    +0.365 C 
ATOM     12  OE2 GLU A   1      -7.941  25.782  -5.411  0.00  0.00    -0.246 OA
ATOM     13  OE1 GLU A   1      -5.863  25.831  -6.159  0.00  0.00    -0.246 OA
ENDBRANCH  10  11
ENDBRANCH   9  10
ENDBRANCH   6   9
ENDBRANCH   2   6
ENDBRANCH   1   4
BRANCH   1  14
ATOM     14  C   LEU A   2      -3.724  29.713  -5.369  0.00  0.00    +0.241 C 
ATOM     15  O   LEU A   2      -2.825  29.009  -5.827  0.00  0.00    -0.273 OA
ATOM     16  N   GLY A   3      -4.749  30.141  -6.106  0.00  0.00    -0.295 N 
ATOM     17  H   GLY A   3      -5.544  30.626  -5.643  0.00  0.00    +0.150 HD
BRANCH  16  18
ATOM     18  CA  GLY A   3      -4.775  29.942  -7.547  0.00  0.00    +0.176 C 
BRANCH  18  19
ATOM     19  C   GLY A   3      -3.786  30.905  -8.168  0.00  0.00    +0.243 C 
ATOM     20  O   GLY A   3      -3.659  32.035  -7.708  0.00  0.00    -0.273 OA
ATOM     21  N   GLY A   4      -3.065  30.467  -9.197  0.00  0.00    -0.296 N 
ATOM     22  H   GLY A   4      -3.256  29.530  -9.607  0.00  0.00    +0.150 HD
BRANCH  21  23
ATOM     23  CA  GLY A   4      -2.013  31.299  -9.745  0.00  0.00    +0.163 C 
BRANCH  23  24
ATOM     24  C   GLY A   4      -2.246  31.762 -11.175  0.00  0.00    +0.229 C 
ATOM     25  O   GLY A   4      -2.889  31.077 -11.977  0.00  0.00    -0.286 OA
ENDBRANCH  23  24
ENDBRANCH  21  23
ENDBRANCH  18  19
ENDBRANCH  16  18
ENDBRANCH   1  14
BRANCH   1  26
ATOM     26  CB  LEU A   2      -2.634  31.179  -3.645  0.00  0.00    +0.029 C 
BRANCH  26  27
ATOM     27  CG  LEU A   2      -2.545  31.713  -2.222  0.00  0.00    +0.002 C 
ATOM     28  CD2 LEU A   2      -3.780  32.523  -1.892  0.00  0.00    +0.000 C 
ATOM     29  CD1 LEU A   2      -1.278  32.542  -2.058  0.00  0.00    +0.000 C 
ENDBRANCH  26  27
ENDBRANCH   1  26
TORSDOF 13
REMARK  Name = ../refined-set-2016/4r74/4r74_pocket.pdb
REMARK  223 active torsions:
REMARK  status: ('A' for Active; 'I' for Inactive)
REMARK    1  A    between atoms: _1  and  _3
REMARK    2  A    between atoms: _3  and  _4
REMARK    3  A    between atoms: _3  and  _6
REMARK    4  A    between atoms: _6  and  _7
REMARK    5  A    between atoms: _9  and  _11
REMARK    6  A    between atoms: _11  and  _12
REMARK    7  A    between atoms: _15  and  _17
REMARK    8  A    between atoms: _17  and  _18
REMARK    9  A    between atoms: _17  and  _20
REMARK   10  A    between atoms: _20  and  _21
REMARK   11  A    between atoms: _24  and  _26
REMARK   12  A    between atoms: _26  and  _27
REMARK   13  A    between atoms: _26  and  _29
REMARK   14  A    between atoms: _29  and  _30
REMARK   15  A    between atoms: _35  and  _37
REMARK   16  A    between atoms: _37  and  _38
REMARK   17  A    between atoms: _37  and  _40
REMARK   18  A    between atoms: _40  and  _41
REMARK   19  A    between atoms: _41  and  _42
REMARK   20  A    between atoms: _44  and  _46
REMARK   21  A    between atoms: _46  and  _47
REMARK   22  A    between atoms: _46  and  _49
REMARK   23  A    between atoms: _49  and  _50
REMARK   24  A    between atoms: _50  and  _51
REMARK   25  A    between atoms: _51  and  _52
REMARK   26  A    between atoms: _61  and  _63
REMARK   27  A    between atoms: _63  and  _64
REMARK   28  A    between atoms: _63  and  _66
REMARK   29  A    between atoms: _66  and  _67
REMARK   30  A    between atoms: _72  and  _74
REMARK   31  A    between atoms: _74  and  _75
REMARK   32  A    between atoms: _77  and  _79
REMARK   33  A    between atoms: _79  and  _80
REMARK   34  A    between atoms: _79  and  _82
REMARK   35  A    between atoms: _82  and  _83
REMARK   36  A    between atoms: _85  and  _87
REMARK   37  A    between atoms: _87  and  _88
REMARK   38  A    between atoms: _90  and  _92
REMARK   39  A    between atoms: _92  and  _93
REMARK   40  A    between atoms: _92  and  _95
REMARK   41  A    between atoms: _95  and  _96
REMARK   42  A    between atoms: _98  and  _100
REMARK   43  A    between atoms: _100  and  _101
REMARK   44  A    between atoms: _100  and  _103
REMARK   45  A    between atoms: _103  and  _104
REMARK   46  A    between atoms: _107  and  _109
REMARK   47  A    between atoms: _109  and  _110
REMARK   48  A    between atoms: _109  and  _112
REMARK   49  A    between atoms: _112  and  _113
REMARK   50  A    between atoms: _119  and  _121
REMARK   51  A    between atoms: _121  and  _122
REMARK   52  A    between atoms: _121  and  _124
REMARK   53  A    between atoms: _124  and  _125
REMARK   54  A    between atoms: _135  and  _137
REMARK   55  A    between atoms: _137  and  _138
REMARK   56  A    between atoms: _137  and  _140
REMARK   57  A    between atoms: _140  and  _141
REMARK   58  A    between atoms: _146  and  _147
REMARK   59  A    between atoms: _149  and  _151
REMARK   60  A    between atoms: _151  and  _152
REMARK   61  A    between atoms: _154  and  _156
REMARK   62  A    between atoms: _156  and  _157
REMARK   63  A    between atoms: _159  and  _161
REMARK   64  A    between atoms: _161  and  _162
REMARK   65  A    between atoms: _161  and  _164
REMARK   66  A    between atoms: _164  and  _165
REMARK   67  A    between atoms: _168  and  _170
REMARK   68  A    between atoms: _170  and  _171
REMARK   69  A    between atoms: _170  and  _173
REMARK   70  A    between atoms: _173  and  _174
REMARK   71  A    between atoms: _178  and  _179
REMARK   72  A    between atoms: _184  and  _186
REMARK   73  A    between atoms: _186  and  _187
REMARK   74  A    between atoms: _186  and  _189
REMARK   75  A    between atoms: _189  and  _190
REMARK   76  A    between atoms: _190  and  _191
REMARK   77  A    between atoms: _196  and  _198
REMARK   78  A    between atoms: _198  and  _199
REMARK   79  A    between atoms: _198  and  _201
REMARK   80  A    between atoms: _204  and  _206
REMARK   81  A    between atoms: _206  and  _207
REMARK   82  A    between atoms: _206  and  _209
REMARK   83  A    between atoms: _209  and  _210
REMARK   84  A    between atoms: _215  and  _216
REMARK   85  A    between atoms: _218  and  _220
REMARK   86  A    between atoms: _220  and  _221
REMARK   87  A    between atoms: _220  and  _223
REMARK   88  A    between atoms: _223  and  _224
REMARK   89  A    between atoms: _227  and  _229
REMARK   90  A    between atoms: _229  and  _230
REMARK   91  A    between atoms: _232  and  _234
REMARK   92  A    between atoms: _234  and  _235
REMARK   93  A    between atoms: _234  and  _237
REMARK   94  A    between atoms: _237  and  _238
REMARK   95  A    between atoms: _241  and  _243
REMARK   96  A    between atoms: _243  and  _244
REMARK   97  A    between atoms: _247  and  _249
REMARK   98  A    between atoms: _249  and  _250
REMARK   99  A    between atoms: _249  and  _252
REMARK  100  A    between atoms: _252  and  _253
REMARK  101  A    between atoms: _257  and  _258
REMARK  102  A    between atoms: _263  and  _265
REMARK  103  A    between atoms: _265  and  _266
REMARK  104  A    between atoms: _265  and  _268
REMARK  105  A    between atoms: _268  and  _269
REMARK  106  A    between atoms: _271  and  _273
REMARK  107  A    between atoms: _273  and  _274
REMARK  108  A    between atoms: _273  and  _276
REMARK  109  A    between atoms: _276  and  _277
REMARK  110  A    between atoms: _279  and  _281
REMARK  111  A    between atoms: _281  and  _282
REMARK  112  A    between atoms: _284  and  _286
REMARK  113  A    between atoms: _286  and  _287
REMARK  114  A    between atoms: _286  and  _289
REMARK  115  A    between atoms: _289  and  _290
REMARK  116  A    between atoms: _293  and  _295
REMARK  117  A    between atoms: _295  and  _296
REMARK  118  A    between atoms: _299  and  _301
REMARK  119  A    between atoms: _301  and  _302
REMARK  120  A    between atoms: _301  and  _304
REMARK  121  A    between atoms: _304  and  _305
REMARK  122  A    between atoms: _310  and  _311
REMARK  123  A    between atoms: _313  and  _315
REMARK  124  A    between atoms: _315  and  _316
REMARK  125  A    between atoms: _315  and  _318
REMARK  126  A    between atoms: _318  and  _319
REMARK  127  A    between atoms: _322  and  _324
REMARK  128  A    between atoms: _324  and  _325
REMARK  129  A    between atoms: _328  and  _330
REMARK  130  A    between atoms: _330  and  _331
REMARK  131  A    between atoms: _330  and  _333
REMARK  132  A    between atoms: _333  and  _334
REMARK  133  A    between atoms: _337  and  _339
REMARK  134  A    between atoms: _339  and  _340
REMARK  135  A    between atoms: _339  and  _342
REMARK  136  A    between atoms: _342  and  _343
REMARK  137  A    between atoms: _343  and  _344
REMARK  138  A    between atoms: _344  and  _345
REMARK  139  A    between atoms: _345  and  _346
REMARK  140  A    between atoms: _350  and  _352
REMARK  141  A    between atoms: _352  and  _353
REMARK  142  A    between atoms: _352  and  _355
REMARK  143  A    between atoms: _355  and  _356
REMARK  144  A    between atoms: _358  and  _360
REMARK  145  A    between atoms: _360  and  _361
REMARK  146  A    between atoms: _363  and  _365
REMARK  147  A    between atoms: _365  and  _366
REMARK  148  A    between atoms: _365  and  _368
REMARK  149  A    between atoms: _368  and  _369
REMARK  150  A    between atoms: _372  and  _374
REMARK  151  A    between atoms: _374  and  _375
REMARK  152  A    between atoms: _374  and  _377
REMARK  153  A    between atoms: _377  and  _378
REMARK  154  A    between atoms: _381  and  _383
REMARK  155  A    between atoms: _383  and  _384
REMARK  156  A    between atoms: _387  and  _389
REMARK  157  A    between atoms: _389  and  _390
REMARK  158  A    between atoms: _389  and  _392
REMARK  159  A    between atoms: _392  and  _393
REMARK  160  A    between atoms: _393  and  _394
REMARK  161  A    between atoms: _394  and  _395
REMARK  162  A    between atoms: _404  and  _406
REMARK  163  A    between atoms: _406  and  _407
REMARK  164  A    between atoms: _409  and  _411
REMARK  165  A    between atoms: _411  and  _412
REMARK  166  A    between atoms: _411  and  _414
REMARK  167  A    between atoms: _414  and  _415
REMARK  168  A    between atoms: _421  and  _423
REMARK  169  A    between atoms: _423  and  _424
REMARK  170  A    between atoms: _423  and  _426
REMARK  171  A    between atoms: _426  and  _427
REMARK  172  A    between atoms: _430  and  _432
REMARK  173  A    between atoms: _432  and  _433
REMARK  174  A    between atoms: _432  and  _435
REMARK  175  A    between atoms: _435  and  _436
REMARK  176  A    between atoms: _441  and  _443
REMARK  177  A    between atoms: _443  and  _444
REMARK  178  A    between atoms: _443  and  _446
REMARK  179  A    between atoms: _446  and  _447
REMARK  180  A    between atoms: _450  and  _452
REMARK  181  A    between atoms: _452  and  _453
REMARK  182  A    between atoms: _452  and  _455
REMARK  183  A    between atoms: _455  and  _456
REMARK  184  A    between atoms: _461  and  _462
REMARK  185  A    between atoms: _464  and  _466
REMARK  186  A    between atoms: _466  and  _467
REMARK  187  A    between atoms: _466  and  _469
REMARK  188  A    between atoms: _469  and  _470
REMARK  189  A    between atoms: _470  and  _471
REMARK  190  A    between atoms: _474  and  _476
REMARK  191  A    between atoms: _476  and  _477
REMARK  192  A    between atoms: _476  and  _479
REMARK  193  A    between atoms: _479  and  _480
REMARK  194  A    between atoms: _483  and  _485
REMARK  195  A    between atoms: _485  and  _486
REMARK  196  A    between atoms: _488  and  _490
REMARK  197  A    between atoms: _490  and  _491
REMARK  198  A    between atoms: _493  and  _495
REMARK  199  A    between atoms: _495  and  _496
REMARK  200  A    between atoms: _495  and  _498
REMARK  201  A    between atoms: _498  and  _499
REMARK  202  A    between atoms: _499  and  _500
REMARK  203  A    between atoms: _505  and  _507
REMARK  204  A    between atoms: _507  and  _508
REMARK  205  A    between atoms: _511  and  _513
REMARK  206  A    between atoms: _513  and  _514
REMARK  207  A    between atoms: _513  and  _516
REMARK  208  A    between atoms: _516  and  _517
REMARK  209  A    between atoms: _520  and  _522
REMARK  210  A    between atoms: _522  and  _523
REMARK  211  A    between atoms: _522  and  _525
REMARK  212  A    between atoms: _525  and  _526
REMARK  213  A    between atoms: _526  and  _527
REMARK  214  A    between atoms: _532  and  _534
REMARK  215  A    between atoms: _534  and  _535
REMARK  216  A    between atoms: _534  and  _537
REMARK  217  A    between atoms: _537  and  _538
REMARK  218  A    between atoms: _541  and  _543
REMARK  219  A    between atoms: _543  and  _544
REMARK  220  A    between atoms: _543  and  _546
REMARK  221  A    between atoms: _546  and  _547
REMARK  222  A    between atoms: _547  and  _548
REMARK  223  A    between atoms: _548  and  _549
REMARK                            x       y       z     vdW  Elec       q    Type
REMARK                         _______ _______ _______ _____ _____    ______ ____
ROOT
ATOM      1  CA  LEU A   3     -16.656  28.980  -6.087  0.00  0.00    +0.149 C 
ENDROOT
BRANCH   1   3
ATOM      2  C   ALA A   2     -16.267  28.997  -8.469  0.00  0.00    +0.241 C 
ATOM      3  N   LEU A   3     -16.273  28.316  -7.326  0.00  0.00    -0.297 N 
ATOM      4  H   LEU A   3     -16.005  27.311  -7.317  0.00  0.00    +0.150 HD
ATOM      5  O   ALA A   2     -16.312  30.226  -8.516  0.00  0.00    -0.273 OA
BRANCH   2   6
ATOM      6  CA  ALA A   2     -16.209  28.184  -9.746  0.00  0.00    +0.149 C 
ATOM      7  CB  ALA A   2     -14.978  28.535 -10.569  0.00  0.00    +0.031 C 
BRANCH   6   9
ATOM      8  C   GLN A   1     -18.073  27.429 -11.087  0.00  0.00    +0.238 C 
ATOM      9  N   ALA A   2     -17.413  28.427 -10.517  0.00  0.00    -0.297 N 
ATOM     10  H   ALA A   2     -17.764  29.400 -10.624  0.00  0.00    +0.150 HD
ATOM     11  O   GLN A   1     -17.760  26.248 -10.932  0.00  0.00    -0.274 OA
BRANCH   8  12
ATOM     12  CA  GLN A   1     -19.282  27.821 -11.930  0.00  0.00    +0.145 C 
BRANCH  12  13
ATOM     13  N   GLN A   1     -19.013  28.941 -12.828  0.00  0.00    -0.238 NA
ATOM     14  H   GLN A   1     -19.681  29.737 -12.848  0.00  0.00    +0.142 HD
ENDBRANCH  12  13
BRANCH  12  15
ATOM     15  CB  GLN A   1     -19.765  26.619 -12.729  0.00  0.00    +0.036 C 
BRANCH  15  16
ATOM     16  CG  GLN A   1     -21.175  26.786 -13.267  0.00  0.00    +0.087 C 
BRANCH  16  17
ATOM     17  CD  GLN A   1     -21.582  25.626 -14.158  0.00  0.00    +0.219 C 
ATOM     18  NE2 GLN A   1     -21.976  24.512 -13.545  0.00  0.00    -0.329 N 
ATOM     19 HE21 GLN A   1     -22.016  24.476 -12.506  0.00  0.00    +0.145 HD
ATOM     20 HE22 GLN A   1     -22.244  23.677 -14.105  0.00  0.00    +0.145 HD
ATOM     21  OE1 GLN A   1     -21.516  25.723 -15.384  0.00  0.00    -0.275 OA
ENDBRANCH  16  17
ENDBRANCH  15  16
ENDBRANCH  12  15
ENDBRANCH   8  12
ENDBRANCH   6   9
ENDBRANCH   2   6
ENDBRANCH   1   3
BRANCH   1  22
ATOM     22  C   LEU A   3     -15.487  29.210  -5.137  0.00  0.00    +0.241 C 
ATOM     23  O   LEU A   3     -15.672  29.202  -3.924  0.00  0.00    -0.273 OA
ATOM     24  N   GLN A   4     -14.288  29.400  -5.685  0.00  0.00    -0.297 N 
ATOM     25  H   GLN A   4     -14.167  29.284  -6.711  0.00  0.00    +0.150 HD
BRANCH  24  26
ATOM     26  CA  GLN A   4     -13.139  29.770  -4.859  0.00  0.00    +0.149 C 
BRANCH  26  27
ATOM     27  C   GLN A   4     -13.348  31.139  -4.208  0.00  0.00    +0.241 C 
ATOM     28  N   THR A   5     -12.615  31.383  -3.131  0.00  0.00    -0.296 N 
ATOM     29  H   THR A   5     -12.021  30.627  -2.735  0.00  0.00    +0.150 HD
ATOM     30  O   GLN A   4     -14.149  31.955  -4.673  0.00  0.00    -0.273 OA
BRANCH  28  31
ATOM     31  CA  THR A   5     -12.627  32.687  -2.494  0.00  0.00    +0.164 C 
BRANCH  31  32
ATOM     32  CB  THR A   5     -12.155  32.575  -1.056  0.00  0.00    +0.136 C 
ATOM     33  CG2 THR A   5     -12.275  33.917  -0.335  0.00  0.00    +0.034 C 
BRANCH  32  34
ATOM     34  OG1 THR A   5     -12.963  31.596  -0.394  0.00  0.00    -0.382 OA
ATOM     35  HG1 THR A   5     -12.866  30.724  -0.853  0.00  0.00    +0.210 HD
ENDBRANCH  32  34
ENDBRANCH  31  32
BRANCH  31  36
ATOM     36  C   THR A   5     -11.734  33.641  -3.280  0.00  0.00    +0.229 C 
ATOM     37  O   THR A   5     -10.625  33.278  -3.640  0.00  0.00    -0.286 OA
ENDBRANCH  31  36
ENDBRANCH  28  31
ENDBRANCH  26  27
BRANCH  26  38
ATOM     38  CB  GLN A   4     -11.850  29.799  -5.685  0.00  0.00    +0.039 C 
BRANCH  38  39
ATOM     39  CG  GLN A   4     -11.519  28.491  -6.364  0.00  0.00    +0.087 C 
BRANCH  39  40
ATOM     40  CD  GLN A   4     -12.009  28.465  -7.790  0.00  0.00    +0.219 C 
ATOM     41  OE1 GLN A   4     -12.907  29.224  -8.169  0.00  0.00    -0.275 OA
ATOM     42  NE2 GLN A   4     -11.415  27.600  -8.598  0.00  0.00    -0.329 N 
ATOM     43 HE21 GLN A   4     -10.663  26.980  -8.234  0.00  0.00    +0.145 HD
ATOM     44 HE22 GLN A   4     -11.700  27.540  -9.596  0.00  0.00    +0.145 HD
ENDBRANCH  39  40
ENDBRANCH  38  39
ENDBRANCH  26  38
ENDBRANCH  24  26
ENDBRANCH   1  22
BRANCH   1  45
ATOM     45  CB  LEU A   3     -17.749  28.171  -5.370  0.00  0.00    +0.029 C 
BRANCH  45  46
ATOM     46  CG  LEU A   3     -18.984  27.799  -6.192  0.00  0.00    +0.002 C 
ATOM     47  CD2 LEU A   3     -19.964  26.938  -5.361  0.00  0.00    +0.000 C 
ATOM     48  CD1 LEU A   3     -19.668  29.062  -6.745  0.00  0.00    +0.000 C 
ENDBRANCH  45  46
ENDBRANCH   1  45
TORSDOF 20
REMARK  Name = ../refined-set-2016/4r74/4r74_pocket.pdb
REMARK  223 active torsions:
REMARK  status: ('A' for Active; 'I' for Inactive)
REMARK    1  A    between atoms: _1  and  _3
REMARK    2  A    between atoms: _3  and  _4
REMARK    3  A    between atoms: _3  and  _6
REMARK    4  A    between atoms: _6  and  _7
REMARK    5  A    between atoms: _9  and  _11
REMARK    6  A    between atoms: _11  and  _12
REMARK    7  A    between atoms: _15  and  _17
REMARK    8  A    between atoms: _17  and  _18
REMARK    9  A    between atoms: _17  and  _20
REMARK   10  A    between atoms: _20  and  _21
REMARK   11  A    between atoms: _24  and  _26
REMARK   12  A    between atoms: _26  and  _27
REMARK   13  A    between atoms: _26  and  _29
REMARK   14  A    between atoms: _29  and  _30
REMARK   15  A    between atoms: _35  and  _37
REMARK   16  A    between atoms: _37  and  _38
REMARK   17  A    between atoms: _37  and  _40
REMARK   18  A    between atoms: _40  and  _41
REMARK   19  A    between atoms: _41  and  _42
REMARK   20  A    between atoms: _44  and  _46
REMARK   21  A    between atoms: _46  and  _47
REMARK   22  A    between atoms: _46  and  _49
REMARK   23  A    between atoms: _49  and  _50
REMARK   24  A    between atoms: _50  and  _51
REMARK   25  A    between atoms: _51  and  _52
REMARK   26  A    between atoms: _61  and  _63
REMARK   27  A    between atoms: _63  and  _64
REMARK   28  A    between atoms: _63  and  _66
REMARK   29  A    between atoms: _66  and  _67
REMARK   30  A    between atoms: _72  and  _74
REMARK   31  A    between atoms: _74  and  _75
REMARK   32  A    between atoms: _77  and  _79
REMARK   33  A    between atoms: _79  and  _80
REMARK   34  A    between atoms: _79  and  _82
REMARK   35  A    between atoms: _82  and  _83
REMARK   36  A    between atoms: _85  and  _87
REMARK   37  A    between atoms: _87  and  _88
REMARK   38  A    between atoms: _90  and  _92
REMARK   39  A    between atoms: _92  and  _93
REMARK   40  A    between atoms: _92  and  _95
REMARK   41  A    between atoms: _95  and  _96
REMARK   42  A    between atoms: _98  and  _100
REMARK   43  A    between atoms: _100  and  _101
REMARK   44  A    between atoms: _100  and  _103
REMARK   45  A    between atoms: _103  and  _104
REMARK   46  A    between atoms: _107  and  _109
REMARK   47  A    between atoms: _109  and  _110
REMARK   48  A    between atoms: _109  and  _112
REMARK   49  A    between atoms: _112  and  _113
REMARK   50  A    between atoms: _119  and  _121
REMARK   51  A    between atoms: _121  and  _122
REMARK   52  A    between atoms: _121  and  _124
REMARK   53  A    between atoms: _124  and  _125
REMARK   54  A    between atoms: _135  and  _137
REMARK   55  A    between atoms: _137  and  _138
REMARK   56  A    between atoms: _137  and  _140
REMARK   57  A    between atoms: _140  and  _141
REMARK   58  A    between atoms: _146  and  _147
REMARK   59  A    between atoms: _149  and  _151
REMARK   60  A    between atoms: _151  and  _152
REMARK   61  A    between atoms: _154  and  _156
REMARK   62  A    between atoms: _156  and  _157
REMARK   63  A    between atoms: _159  and  _161
REMARK   64  A    between atoms: _161  and  _162
REMARK   65  A    between atoms: _161  and  _164
REMARK   66  A    between atoms: _164  and  _165
REMARK   67  A    between atoms: _168  and  _170
REMARK   68  A    between atoms: _170  and  _171
REMARK   69  A    between atoms: _170  and  _173
REMARK   70  A    between atoms: _173  and  _174
REMARK   71  A    between atoms: _178  and  _179
REMARK   72  A    between atoms: _184  and  _186
REMARK   73  A    between atoms: _186  and  _187
REMARK   74  A    between atoms: _186  and  _189
REMARK   75  A    between atoms: _189  and  _190
REMARK   76  A    between atoms: _190  and  _191
REMARK   77  A    between atoms: _196  and  _198
REMARK   78  A    between atoms: _198  and  _199
REMARK   79  A    between atoms: _198  and  _201
REMARK   80  A    between atoms: _204  and  _206
REMARK   81  A    between atoms: _206  and  _207
REMARK   82  A    between atoms: _206  and  _209
REMARK   83  A    between atoms: _209  and  _210
REMARK   84  A    between atoms: _215  and  _216
REMARK   85  A    between atoms: _218  and  _220
REMARK   86  A    between atoms: _220  and  _221
REMARK   87  A    between atoms: _220  and  _223
REMARK   88  A    between atoms: _223  and  _224
REMARK   89  A    between atoms: _227  and  _229
REMARK   90  A    between atoms: _229  and  _230
REMARK   91  A    between atoms: _232  and  _234
REMARK   92  A    between atoms: _234  and  _235
REMARK   93  A    between atoms: _234  and  _237
REMARK   94  A    between atoms: _237  and  _238
REMARK   95  A    between atoms: _241  and  _243
REMARK   96  A    between atoms: _243  and  _244
REMARK   97  A    between atoms: _247  and  _249
REMARK   98  A    between atoms: _249  and  _250
REMARK   99  A    between atoms: _249  and  _252
REMARK  100  A    between atoms: _252  and  _253
REMARK  101  A    between atoms: _257  and  _258
REMARK  102  A    between atoms: _263  and  _265
REMARK  103  A    between atoms: _265  and  _266
REMARK  104  A    between atoms: _265  and  _268
REMARK  105  A    between atoms: _268  and  _269
REMARK  106  A    between atoms: _271  and  _273
REMARK  107  A    between atoms: _273  and  _274
REMARK  108  A    between atoms: _273  and  _276
REMARK  109  A    between atoms: _276  and  _277
REMARK  110  A    between atoms: _279  and  _281
REMARK  111  A    between atoms: _281  and  _282
REMARK  112  A    between atoms: _284  and  _286
REMARK  113  A    between atoms: _286  and  _287
REMARK  114  A    between atoms: _286  and  _289
REMARK  115  A    between atoms: _289  and  _290
REMARK  116  A    between atoms: _293  and  _295
REMARK  117  A    between atoms: _295  and  _296
REMARK  118  A    between atoms: _299  and  _301
REMARK  119  A    between atoms: _301  and  _302
REMARK  120  A    between atoms: _301  and  _304
REMARK  121  A    between atoms: _304  and  _305
REMARK  122  A    between atoms: _310  and  _311
REMARK  123  A    between atoms: _313  and  _315
REMARK  124  A    between atoms: _315  and  _316
REMARK  125  A    between atoms: _315  and  _318
REMARK  126  A    between atoms: _318  and  _319
REMARK  127  A    between atoms: _322  and  _324
REMARK  128  A    between atoms: _324  and  _325
REMARK  129  A    between atoms: _328  and  _330
REMARK  130  A    between atoms: _330  and  _331
REMARK  131  A    between atoms: _330  and  _333
REMARK  132  A    between atoms: _333  and  _334
REMARK  133  A    between atoms: _337  and  _339
REMARK  134  A    between atoms: _339  and  _340
REMARK  135  A    between atoms: _339  and  _342
REMARK  136  A    between atoms: _342  and  _343
REMARK  137  A    between atoms: _343  and  _344
REMARK  138  A    between atoms: _344  and  _345
REMARK  139  A    between atoms: _345  and  _346
REMARK  140  A    between atoms: _350  and  _352
REMARK  141  A    between atoms: _352  and  _353
REMARK  142  A    between atoms: _352  and  _355
REMARK  143  A    between atoms: _355  and  _356
REMARK  144  A    between atoms: _358  and  _360
REMARK  145  A    between atoms: _360  and  _361
REMARK  146  A    between atoms: _363  and  _365
REMARK  147  A    between atoms: _365  and  _366
REMARK  148  A    between atoms: _365  and  _368
REMARK  149  A    between atoms: _368  and  _369
REMARK  150  A    between atoms: _372  and  _374
REMARK  151  A    between atoms: _374  and  _375
REMARK  152  A    between atoms: _374  and  _377
REMARK  153  A    between atoms: _377  and  _378
REMARK  154  A    between atoms: _381  and  _383
REMARK  155  A    between atoms: _383  and  _384
REMARK  156  A    between atoms: _387  and  _389
REMARK  157  A    between atoms: _389  and  _390
REMARK  158  A    between atoms: _389  and  _392
REMARK  159  A    between atoms: _392  and  _393
REMARK  160  A    between atoms: _393  and  _394
REMARK  161  A    between atoms: _394  and  _395
REMARK  162  A    between atoms: _404  and  _406
REMARK  163  A    between atoms: _406  and  _407
REMARK  164  A    between atoms: _409  and  _411
REMARK  165  A    between atoms: _411  and  _412
REMARK  166  A    between atoms: _411  and  _414
REMARK  167  A    between atoms: _414  and  _415
REMARK  168  A    between atoms: _421  and  _423
REMARK  169  A    between atoms: _423  and  _424
REMARK  170  A    between atoms: _423  and  _426
REMARK  171  A    between atoms: _426  and  _427
REMARK  172  A    between atoms: _430  and  _432
REMARK  173  A    between atoms: _432  and  _433
REMARK  174  A    between atoms: _432  and  _435
REMARK  175  A    between atoms: _435  and  _436
REMARK  176  A    between atoms: _441  and  _443
REMARK  177  A    between atoms: _443  and  _444
REMARK  178  A    between atoms: _443  and  _446
REMARK  179  A    between atoms: _446  and  _447
REMARK  180  A    between atoms: _450  and  _452
REMARK  181  A    between atoms: _452  and  _453
REMARK  182  A    between atoms: _452  and  _455
REMARK  183  A    between atoms: _455  and  _456
REMARK  184  A    between atoms: _461  and  _462
REMARK  185  A    between atoms: _464  and  _466
REMARK  186  A    between atoms: _466  and  _467
REMARK  187  A    between atoms: _466  and  _469
REMARK  188  A    between atoms: _469  and  _470
REMARK  189  A    between atoms: _470  and  _471
REMARK  190  A    between atoms: _474  and  _476
REMARK  191  A    between atoms: _476  and  _477
REMARK  192  A    between atoms: _476  and  _479
REMARK  193  A    between atoms: _479  and  _480
REMARK  194  A    between atoms: _483  and  _485
REMARK  195  A    between atoms: _485  and  _486
REMARK  196  A    between atoms: _488  and  _490
REMARK  197  A    between atoms: _490  and  _491
REMARK  198  A    between atoms: _493  and  _495
REMARK  199  A    between atoms: _495  and  _496
REMARK  200  A    between atoms: _495  and  _498
REMARK  201  A    between atoms: _498  and  _499
REMARK  202  A    between atoms: _499  and  _500
REMARK  203  A    between atoms: _505  and  _507
REMARK  204  A    between atoms: _507  and  _508
REMARK  205  A    between atoms: _511  and  _513
REMARK  206  A    between atoms: _513  and  _514
REMARK  207  A    between atoms: _513  and  _516
REMARK  208  A    between atoms: _516  and  _517
REMARK  209  A    between atoms: _520  and  _522
REMARK  210  A    between atoms: _522  and  _523
REMARK  211  A    between atoms: _522  and  _525
REMARK  212  A    between atoms: _525  and  _526
REMARK  213  A    between atoms: _526  and  _527
REMARK  214  A    between atoms: _532  and  _534
REMARK  215  A    between atoms: _534  and  _535
REMARK  216  A    between atoms: _534  and  _537
REMARK  217  A    between atoms: _537  and  _538
REMARK  218  A    between atoms: _541  and  _543
REMARK  219  A    between atoms: _543  and  _544
REMARK  220  A    between atoms: _543  and  _546
REMARK  221  A    between atoms: _546  and  _547
REMARK  222  A    between atoms: _547  and  _548
REMARK  223  A    between atoms: _548  and  _549
REMARK                            x       y       z     vdW  Elec       q    Type
REMARK                         _______ _______ _______ _____ _____    ______ ____
ROOT
ATOM      1  NE  ARG A   1       4.562  20.923  -7.820  0.00  0.00    -0.265 N 
ATOM      2  HE  ARG A   1       3.598  20.920  -7.429  0.00  0.00    +0.259 HD
ATOM      3  CZ  ARG A   1       4.775  20.303  -8.973  0.00  0.00    +0.342 C 
ATOM      4  NH2 ARG A   1       5.982  20.326  -9.529  0.00  0.00    -0.292 N 
ATOM      5 HH21 ARG A   1       6.761  20.831  -9.060  0.00  0.00    +0.255 HD
ATOM      6 HH22 ARG A   1       6.147  19.839 -10.433  0.00  0.00    +0.255 HD
ATOM      7  NH1 ARG A   1       3.782  19.682  -9.579  0.00  0.00    -0.292 N 
ATOM      8 HH11 ARG A   1       2.833  19.679  -9.153  0.00  0.00    +0.255 HD
ATOM      9 HH12 ARG A   1       3.948  19.195 -10.483  0.00  0.00    +0.255 HD
ENDROOT
BRANCH   1  10
ATOM     10  CD  ARG A   1       5.606  21.607  -7.074  0.00  0.00    +0.174 C 
BRANCH  10  11
ATOM     11  CG  ARG A   1       6.260  20.570  -6.184  0.00  0.00    +0.045 C 
BRANCH  11  12
ATOM     12  CB  ARG A   1       7.579  20.983  -5.582  0.00  0.00    +0.029 C 
BRANCH  12  13
ATOM     13  CA  ARG A   1       8.077  19.921  -4.595  0.00  0.00    +0.133 C 
BRANCH  13  14
ATOM     14  N   ARG A   1       9.047  20.488  -3.667  0.00  0.00    -0.239 NA
ATOM     15  H   ARG A   1       9.458  21.426  -3.848  0.00  0.00    +0.142 HD
ENDBRANCH  13  14
BRANCH  13  16
ATOM     16  C   ARG A   1       8.623  18.710  -5.349  0.00  0.00    +0.224 C 
ATOM     17  O   ARG A   1       7.975  17.656  -5.390  0.00  0.00    -0.287 OA
ENDBRANCH  13  16
ENDBRANCH  12  13
ENDBRANCH  11  12
ENDBRANCH  10  11
ENDBRANCH   1  10
TORSDOF 6
REMARK  Name = ../refined-set-2016/4r74/4r74_pocket.pdb
REMARK  223 active torsions:
REMARK  status: ('A' for Active; 'I' for Inactive)
REMARK    1  A    between atoms: _1  and  _3
REMARK    2  A    between atoms: _3  and  _4
REMARK    3  A    between atoms: _3  and  _6
REMARK    4  A    between atoms: _6  and  _7
REMARK    5  A    between atoms: _9  and  _11
REMARK    6  A    between atoms: _11  and  _12
REMARK    7  A    between atoms: _15  and  _17
REMARK    8  A    between atoms: _17  and  _18
REMARK    9  A    between atoms: _17  and  _20
REMARK   10  A    between atoms: _20  and  _21
REMARK   11  A    between atoms: _24  and  _26
REMARK   12  A    between atoms: _26  and  _27
REMARK   13  A    between atoms: _26  and  _29
REMARK   14  A    between atoms: _29  and  _30
REMARK   15  A    between atoms: _35  and  _37
REMARK   16  A    between atoms: _37  and  _38
REMARK   17  A    between atoms: _37  and  _40
REMARK   18  A    between atoms: _40  and  _41
REMARK   19  A    between atoms: _41  and  _42
REMARK   20  A    between atoms: _44  and  _46
REMARK   21  A    between atoms: _46  and  _47
REMARK   22  A    between atoms: _46  and  _49
REMARK   23  A    between atoms: _49  and  _50
REMARK   24  A    between atoms: _50  and  _51
REMARK   25  A    between atoms: _51  and  _52
REMARK   26  A    between atoms: _61  and  _63
REMARK   27  A    between atoms: _63  and  _64
REMARK   28  A    between atoms: _63  and  _66
REMARK   29  A    between atoms: _66  and  _67
REMARK   30  A    between atoms: _72  and  _74
REMARK   31  A    between atoms: _74  and  _75
REMARK   32  A    between atoms: _77  and  _79
REMARK   33  A    between atoms: _79  and  _80
REMARK   34  A    between atoms: _79  and  _82
REMARK   35  A    between atoms: _82  and  _83
REMARK   36  A    between atoms: _85  and  _87
REMARK   37  A    between atoms: _87  and  _88
REMARK   38  A    between atoms: _90  and  _92
REMARK   39  A    between atoms: _92  and  _93
REMARK   40  A    between atoms: _92  and  _95
REMARK   41  A    between atoms: _95  and  _96
REMARK   42  A    between atoms: _98  and  _100
REMARK   43  A    between atoms: _100  and  _101
REMARK   44  A    between atoms: _100  and  _103
REMARK   45  A    between atoms: _103  and  _104
REMARK   46  A    between atoms: _107  and  _109
REMARK   47  A    between atoms: _109  and  _110
REMARK   48  A    between atoms: _109  and  _112
REMARK   49  A    between atoms: _112  and  _113
REMARK   50  A    between atoms: _119  and  _121
REMARK   51  A    between atoms: _121  and  _122
REMARK   52  A    between atoms: _121  and  _124
REMARK   53  A    between atoms: _124  and  _125
REMARK   54  A    between atoms: _135  and  _137
REMARK   55  A    between atoms: _137  and  _138
REMARK   56  A    between atoms: _137  and  _140
REMARK   57  A    between atoms: _140  and  _141
REMARK   58  A    between atoms: _146  and  _147
REMARK   59  A    between atoms: _149  and  _151
REMARK   60  A    between atoms: _151  and  _152
REMARK   61  A    between atoms: _154  and  _156
REMARK   62  A    between atoms: _156  and  _157
REMARK   63  A    between atoms: _159  and  _161
REMARK   64  A    between atoms: _161  and  _162
REMARK   65  A    between atoms: _161  and  _164
REMARK   66  A    between atoms: _164  and  _165
REMARK   67  A    between atoms: _168  and  _170
REMARK   68  A    between atoms: _170  and  _171
REMARK   69  A    between atoms: _170  and  _173
REMARK   70  A    between atoms: _173  and  _174
REMARK   71  A    between atoms: _178  and  _179
REMARK   72  A    between atoms: _184  and  _186
REMARK   73  A    between atoms: _186  and  _187
REMARK   74  A    between atoms: _186  and  _189
REMARK   75  A    between atoms: _189  and  _190
REMARK   76  A    between atoms: _190  and  _191
REMARK   77  A    between atoms: _196  and  _198
REMARK   78  A    between atoms: _198  and  _199
REMARK   79  A    between atoms: _198  and  _201
REMARK   80  A    between atoms: _204  and  _206
REMARK   81  A    between atoms: _206  and  _207
REMARK   82  A    between atoms: _206  and  _209
REMARK   83  A    between atoms: _209  and  _210
REMARK   84  A    between atoms: _215  and  _216
REMARK   85  A    between atoms: _218  and  _220
REMARK   86  A    between atoms: _220  and  _221
REMARK   87  A    between atoms: _220  and  _223
REMARK   88  A    between atoms: _223  and  _224
REMARK   89  A    between atoms: _227  and  _229
REMARK   90  A    between atoms: _229  and  _230
REMARK   91  A    between atoms: _232  and  _234
REMARK   92  A    between atoms: _234  and  _235
REMARK   93  A    between atoms: _234  and  _237
REMARK   94  A    between atoms: _237  and  _238
REMARK   95  A    between atoms: _241  and  _243
REMARK   96  A    between atoms: _243  and  _244
REMARK   97  A    between atoms: _247  and  _249
REMARK   98  A    between atoms: _249  and  _250
REMARK   99  A    between atoms: _249  and  _252
REMARK  100  A    between atoms: _252  and  _253
REMARK  101  A    between atoms: _257  and  _258
REMARK  102  A    between atoms: _263  and  _265
REMARK  103  A    between atoms: _265  and  _266
REMARK  104  A    between atoms: _265  and  _268
REMARK  105  A    between atoms: _268  and  _269
REMARK  106  A    between atoms: _271  and  _273
REMARK  107  A    between atoms: _273  and  _274
REMARK  108  A    between atoms: _273  and  _276
REMARK  109  A    between atoms: _276  and  _277
REMARK  110  A    between atoms: _279  and  _281
REMARK  111  A    between atoms: _281  and  _282
REMARK  112  A    between atoms: _284  and  _286
REMARK  113  A    between atoms: _286  and  _287
REMARK  114  A    between atoms: _286  and  _289
REMARK  115  A    between atoms: _289  and  _290
REMARK  116  A    between atoms: _293  and  _295
REMARK  117  A    between atoms: _295  and  _296
REMARK  118  A    between atoms: _299  and  _301
REMARK  119  A    between atoms: _301  and  _302
REMARK  120  A    between atoms: _301  and  _304
REMARK  121  A    between atoms: _304  and  _305
REMARK  122  A    between atoms: _310  and  _311
REMARK  123  A    between atoms: _313  and  _315
REMARK  124  A    between atoms: _315  and  _316
REMARK  125  A    between atoms: _315  and  _318
REMARK  126  A    between atoms: _318  and  _319
REMARK  127  A    between atoms: _322  and  _324
REMARK  128  A    between atoms: _324  and  _325
REMARK  129  A    between atoms: _328  and  _330
REMARK  130  A    between atoms: _330  and  _331
REMARK  131  A    between atoms: _330  and  _333
REMARK  132  A    between atoms: _333  and  _334
REMARK  133  A    between atoms: _337  and  _339
REMARK  134  A    between atoms: _339  and  _340
REMARK  135  A    between atoms: _339  and  _342
REMARK  136  A    between atoms: _342  and  _343
REMARK  137  A    between atoms: _343  and  _344
REMARK  138  A    between atoms: _344  and  _345
REMARK  139  A    between atoms: _345  and  _346
REMARK  140  A    between atoms: _350  and  _352
REMARK  141  A    between atoms: _352  and  _353
REMARK  142  A    between atoms: _352  and  _355
REMARK  143  A    between atoms: _355  and  _356
REMARK  144  A    between atoms: _358  and  _360
REMARK  145  A    between atoms: _360  and  _361
REMARK  146  A    between atoms: _363  and  _365
REMARK  147  A    between atoms: _365  and  _366
REMARK  148  A    between atoms: _365  and  _368
REMARK  149  A    between atoms: _368  and  _369
REMARK  150  A    between atoms: _372  and  _374
REMARK  151  A    between atoms: _374  and  _375
REMARK  152  A    between atoms: _374  and  _377
REMARK  153  A    between atoms: _377  and  _378
REMARK  154  A    between atoms: _381  and  _383
REMARK  155  A    between atoms: _383  and  _384
REMARK  156  A    between atoms: _387  and  _389
REMARK  157  A    between atoms: _389  and  _390
REMARK  158  A    between atoms: _389  and  _392
REMARK  159  A    between atoms: _392  and  _393
REMARK  160  A    between atoms: _393  and  _394
REMARK  161  A    between atoms: _394  and  _395
REMARK  162  A    between atoms: _404  and  _406
REMARK  163  A    between atoms: _406  and  _407
REMARK  164  A    between atoms: _409  and  _411
REMARK  165  A    between atoms: _411  and  _412
REMARK  166  A    between atoms: _411  and  _414
REMARK  167  A    between atoms: _414  and  _415
REMARK  168  A    between atoms: _421  and  _423
REMARK  169  A    between atoms: _423  and  _424
REMARK  170  A    between atoms: _423  and  _426
REMARK  171  A    between atoms: _426  and  _427
REMARK  172  A    between atoms: _430  and  _432
REMARK  173  A    between atoms: _432  and  _433
REMARK  174  A    between atoms: _432  and  _435
REMARK  175  A    between atoms: _435  and  _436
REMARK  176  A    between atoms: _441  and  _443
REMARK  177  A    between atoms: _443  and  _444
REMARK  178  A    between atoms: _443  and  _446
REMARK  179  A    between atoms: _446  and  _447
REMARK  180  A    between atoms: _450  and  _452
REMARK  181  A    between atoms: _452  and  _453
REMARK  182  A    between atoms: _452  and  _455
REMARK  183  A    between atoms: _455  and  _456
REMARK  184  A    between atoms: _461  and  _462
REMARK  185  A    between atoms: _464  and  _466
REMARK  186  A    between atoms: _466  and  _467
REMARK  187  A    between atoms: _466  and  _469
REMARK  188  A    between atoms: _469  and  _470
REMARK  189  A    between atoms: _470  and  _471
REMARK  190  A    between atoms: _474  and  _476
REMARK  191  A    between atoms: _476  and  _477
REMARK  192  A    between atoms: _476  and  _479
REMARK  193  A    between atoms: _479  and  _480
REMARK  194  A    between atoms: _483  and  _485
REMARK  195  A    between atoms: _485  and  _486
REMARK  196  A    between atoms: _488  and  _490
REMARK  197  A    between atoms: _490  and  _491
REMARK  198  A    between atoms: _493  and  _495
REMARK  199  A    between atoms: _495  and  _496
REMARK  200  A    between atoms: _495  and  _498
REMARK  201  A    between atoms: _498  and  _499
REMARK  202  A    between atoms: _499  and  _500
REMARK  203  A    between atoms: _505  and  _507
REMARK  204  A    between atoms: _507  and  _508
REMARK  205  A    between atoms: _511  and  _513
REMARK  206  A    between atoms: _513  and  _514
REMARK  207  A    between atoms: _513  and  _516
REMARK  208  A    between atoms: _516  and  _517
REMARK  209  A    between atoms: _520  and  _522
REMARK  210  A    between atoms: _522  and  _523
REMARK  211  A    between atoms: _522  and  _525
REMARK  212  A    between atoms: _525  and  _526
REMARK  213  A    between atoms: _526  and  _527
REMARK  214  A    between atoms: _532  and  _534
REMARK  215  A    between atoms: _534  and  _535
REMARK  216  A    between atoms: _534  and  _537
REMARK  217  A    between atoms: _537  and  _538
REMARK  218  A    between atoms: _541  and  _543
REMARK  219  A    between atoms: _543  and  _544
REMARK  220  A    between atoms: _543  and  _546
REMARK  221  A    between atoms: _546  and  _547
REMARK  222  A    between atoms: _547  and  _548
REMARK  223  A    between atoms: _548  and  _549
REMARK                            x       y       z     vdW  Elec       q    Type
REMARK                         _______ _______ _______ _____ _____    ______ ____
ROOT
ATOM      1  O   HOH     1     -11.029  19.584  -5.459  0.00  0.00    +0.000 OA
ENDROOT
TORSDOF 0
REMARK  Name = ../refined-set-2016/4r74/4r74_pocket.pdb
REMARK  223 active torsions:
REMARK  status: ('A' for Active; 'I' for Inactive)
REMARK    1  A    between atoms: _1  and  _3
REMARK    2  A    between atoms: _3  and  _4
REMARK    3  A    between atoms: _3  and  _6
REMARK    4  A    between atoms: _6  and  _7
REMARK    5  A    between atoms: _9  and  _11
REMARK    6  A    between atoms: _11  and  _12
REMARK    7  A    between atoms: _15  and  _17
REMARK    8  A    between atoms: _17  and  _18
REMARK    9  A    between atoms: _17  and  _20
REMARK   10  A    between atoms: _20  and  _21
REMARK   11  A    between atoms: _24  and  _26
REMARK   12  A    between atoms: _26  and  _27
REMARK   13  A    between atoms: _26  and  _29
REMARK   14  A    between atoms: _29  and  _30
REMARK   15  A    between atoms: _35  and  _37
REMARK   16  A    between atoms: _37  and  _38
REMARK   17  A    between atoms: _37  and  _40
REMARK   18  A    between atoms: _40  and  _41
REMARK   19  A    between atoms: _41  and  _42
REMARK   20  A    between atoms: _44  and  _46
REMARK   21  A    between atoms: _46  and  _47
REMARK   22  A    between atoms: _46  and  _49
REMARK   23  A    between atoms: _49  and  _50
REMARK   24  A    between atoms: _50  and  _51
REMARK   25  A    between atoms: _51  and  _52
REMARK   26  A    between atoms: _61  and  _63
REMARK   27  A    between atoms: _63  and  _64
REMARK   28  A    between atoms: _63  and  _66
REMARK   29  A    between atoms: _66  and  _67
REMARK   30  A    between atoms: _72  and  _74
REMARK   31  A    between atoms: _74  and  _75
REMARK   32  A    between atoms: _77  and  _79
REMARK   33  A    between atoms: _79  and  _80
REMARK   34  A    between atoms: _79  and  _82
REMARK   35  A    between atoms: _82  and  _83
REMARK   36  A    between atoms: _85  and  _87
REMARK   37  A    between atoms: _87  and  _88
REMARK   38  A    between atoms: _90  and  _92
REMARK   39  A    between atoms: _92  and  _93
REMARK   40  A    between atoms: _92  and  _95
REMARK   41  A    between atoms: _95  and  _96
REMARK   42  A    between atoms: _98  and  _100
REMARK   43  A    between atoms: _100  and  _101
REMARK   44  A    between atoms: _100  and  _103
REMARK   45  A    between atoms: _103  and  _104
REMARK   46  A    between atoms: _107  and  _109
REMARK   47  A    between atoms: _109  and  _110
REMARK   48  A    between atoms: _109  and  _112
REMARK   49  A    between atoms: _112  and  _113
REMARK   50  A    between atoms: _119  and  _121
REMARK   51  A    between atoms: _121  and  _122
REMARK   52  A    between atoms: _121  and  _124
REMARK   53  A    between atoms: _124  and  _125
REMARK   54  A    between atoms: _135  and  _137
REMARK   55  A    between atoms: _137  and  _138
REMARK   56  A    between atoms: _137  and  _140
REMARK   57  A    between atoms: _140  and  _141
REMARK   58  A    between atoms: _146  and  _147
REMARK   59  A    between atoms: _149  and  _151
REMARK   60  A    between atoms: _151  and  _152
REMARK   61  A    between atoms: _154  and  _156
REMARK   62  A    between atoms: _156  and  _157
REMARK   63  A    between atoms: _159  and  _161
REMARK   64  A    between atoms: _161  and  _162
REMARK   65  A    between atoms: _161  and  _164
REMARK   66  A    between atoms: _164  and  _165
REMARK   67  A    between atoms: _168  and  _170
REMARK   68  A    between atoms: _170  and  _171
REMARK   69  A    between atoms: _170  and  _173
REMARK   70  A    between atoms: _173  and  _174
REMARK   71  A    between atoms: _178  and  _179
REMARK   72  A    between atoms: _184  and  _186
REMARK   73  A    between atoms: _186  and  _187
REMARK   74  A    between atoms: _186  and  _189
REMARK   75  A    between atoms: _189  and  _190
REMARK   76  A    between atoms: _190  and  _191
REMARK   77  A    between atoms: _196  and  _198
REMARK   78  A    between atoms: _198  and  _199
REMARK   79  A    between atoms: _198  and  _201
REMARK   80  A    between atoms: _204  and  _206
REMARK   81  A    between atoms: _206  and  _207
REMARK   82  A    between atoms: _206  and  _209
REMARK   83  A    between atoms: _209  and  _210
REMARK   84  A    between atoms: _215  and  _216
REMARK   85  A    between atoms: _218  and  _220
REMARK   86  A    between atoms: _220  and  _221
REMARK   87  A    between atoms: _220  and  _223
REMARK   88  A    between atoms: _223  and  _224
REMARK   89  A    between atoms: _227  and  _229
REMARK   90  A    between atoms: _229  and  _230
REMARK   91  A    between atoms: _232  and  _234
REMARK   92  A    between atoms: _234  and  _235
REMARK   93  A    between atoms: _234  and  _237
REMARK   94  A    between atoms: _237  and  _238
REMARK   95  A    between atoms: _241  and  _243
REMARK   96  A    between atoms: _243  and  _244
REMARK   97  A    between atoms: _247  and  _249
REMARK   98  A    between atoms: _249  and  _250
REMARK   99  A    between atoms: _249  and  _252
REMARK  100  A    between atoms: _252  and  _253
REMARK  101  A    between atoms: _257  and  _258
REMARK  102  A    between atoms: _263  and  _265
REMARK  103  A    between atoms: _265  and  _266
REMARK  104  A    between atoms: _265  and  _268
REMARK  105  A    between atoms: _268  and  _269
REMARK  106  A    between atoms: _271  and  _273
REMARK  107  A    between atoms: _273  and  _274
REMARK  108  A    between atoms: _273  and  _276
REMARK  109  A    between atoms: _276  and  _277
REMARK  110  A    between atoms: _279  and  _281
REMARK  111  A    between atoms: _281  and  _282
REMARK  112  A    between atoms: _284  and  _286
REMARK  113  A    between atoms: _286  and  _287
REMARK  114  A    between atoms: _286  and  _289
REMARK  115  A    between atoms: _289  and  _290
REMARK  116  A    between atoms: _293  and  _295
REMARK  117  A    between atoms: _295  and  _296
REMARK  118  A    between atoms: _299  and  _301
REMARK  119  A    between atoms: _301  and  _302
REMARK  120  A    between atoms: _301  and  _304
REMARK  121  A    between atoms: _304  and  _305
REMARK  122  A    between atoms: _310  and  _311
REMARK  123  A    between atoms: _313  and  _315
REMARK  124  A    between atoms: _315  and  _316
REMARK  125  A    between atoms: _315  and  _318
REMARK  126  A    between atoms: _318  and  _319
REMARK  127  A    between atoms: _322  and  _324
REMARK  128  A    between atoms: _324  and  _325
REMARK  129  A    between atoms: _328  and  _330
REMARK  130  A    between atoms: _330  and  _331
REMARK  131  A    between atoms: _330  and  _333
REMARK  132  A    between atoms: _333  and  _334
REMARK  133  A    between atoms: _337  and  _339
REMARK  134  A    between atoms: _339  and  _340
REMARK  135  A    between atoms: _339  and  _342
REMARK  136  A    between atoms: _342  and  _343
REMARK  137  A    between atoms: _343  and  _344
REMARK  138  A    between atoms: _344  and  _345
REMARK  139  A    between atoms: _345  and  _346
REMARK  140  A    between atoms: _350  and  _352
REMARK  141  A    between atoms: _352  and  _353
REMARK  142  A    between atoms: _352  and  _355
REMARK  143  A    between atoms: _355  and  _356
REMARK  144  A    between atoms: _358  and  _360
REMARK  145  A    between atoms: _360  and  _361
REMARK  146  A    between atoms: _363  and  _365
REMARK  147  A    between atoms: _365  and  _366
REMARK  148  A    between atoms: _365  and  _368
REMARK  149  A    between atoms: _368  and  _369
REMARK  150  A    between atoms: _372  and  _374
REMARK  151  A    between atoms: _374  and  _375
REMARK  152  A    between atoms: _374  and  _377
REMARK  153  A    between atoms: _377  and  _378
REMARK  154  A    between atoms: _381  and  _383
REMARK  155  A    between atoms: _383  and  _384
REMARK  156  A    between atoms: _387  and  _389
REMARK  157  A    between atoms: _389  and  _390
REMARK  158  A    between atoms: _389  and  _392
REMARK  159  A    between atoms: _392  and  _393
REMARK  160  A    between atoms: _393  and  _394
REMARK  161  A    between atoms: _394  and  _395
REMARK  162  A    between atoms: _404  and  _406
REMARK  163  A    between atoms: _406  and  _407
REMARK  164  A    between atoms: _409  and  _411
REMARK  165  A    between atoms: _411  and  _412
REMARK  166  A    between atoms: _411  and  _414
REMARK  167  A    between atoms: _414  and  _415
REMARK  168  A    between atoms: _421  and  _423
REMARK  169  A    between atoms: _423  and  _424
REMARK  170  A    between atoms: _423  and  _426
REMARK  171  A    between atoms: _426  and  _427
REMARK  172  A    between atoms: _430  and  _432
REMARK  173  A    between atoms: _432  and  _433
REMARK  174  A    between atoms: _432  and  _435
REMARK  175  A    between atoms: _435  and  _436
REMARK  176  A    between atoms: _441  and  _443
REMARK  177  A    between atoms: _443  and  _444
REMARK  178  A    between atoms: _443  and  _446
REMARK  179  A    between atoms: _446  and  _447
REMARK  180  A    between atoms: _450  and  _452
REMARK  181  A    between atoms: _452  and  _453
REMARK  182  A    between atoms: _452  and  _455
REMARK  183  A    between atoms: _455  and  _456
REMARK  184  A    between atoms: _461  and  _462
REMARK  185  A    between atoms: _464  and  _466
REMARK  186  A    between atoms: _466  and  _467
REMARK  187  A    between atoms: _466  and  _469
REMARK  188  A    between atoms: _469  and  _470
REMARK  189  A    between atoms: _470  and  _471
REMARK  190  A    between atoms: _474  and  _476
REMARK  191  A    between atoms: _476  and  _477
REMARK  192  A    between atoms: _476  and  _479
REMARK  193  A    between atoms: _479  and  _480
REMARK  194  A    between atoms: _483  and  _485
REMARK  195  A    between atoms: _485  and  _486
REMARK  196  A    between atoms: _488  and  _490
REMARK  197  A    between atoms: _490  and  _491
REMARK  198  A    between atoms: _493  and  _495
REMARK  199  A    between atoms: _495  and  _496
REMARK  200  A    between atoms: _495  and  _498
REMARK  201  A    between atoms: _498  and  _499
REMARK  202  A    between atoms: _499  and  _500
REMARK  203  A    between atoms: _505  and  _507
REMARK  204  A    between atoms: _507  and  _508
REMARK  205  A    between atoms: _511  and  _513
REMARK  206  A    between atoms: _513  and  _514
REMARK  207  A    between atoms: _513  and  _516
REMARK  208  A    between atoms: _516  and  _517
REMARK  209  A    between atoms: _520  and  _522
REMARK  210  A    between atoms: _522  and  _523
REMARK  211  A    between atoms: _522  and  _525
REMARK  212  A    between atoms: _525  and  _526
REMARK  213  A    between atoms: _526  and  _527
REMARK  214  A    between atoms: _532  and  _534
REMARK  215  A    between atoms: _534  and  _535
REMARK  216  A    between atoms: _534  and  _537
REMARK  217  A    between atoms: _537  and  _538
REMARK  218  A    between atoms: _541  and  _543
REMARK  219  A    between atoms: _543  and  _544
REMARK  220  A    between atoms: _543  and  _546
REMARK  221  A    between atoms: _546  and  _547
REMARK  222  A    between atoms: _547  and  _548
REMARK  223  A    between atoms: _548  and  _549
REMARK                            x       y       z     vdW  Elec       q    Type
REMARK                         _______ _______ _______ _____ _____    ______ ____
ROOT
ATOM      1  O   HOH     1     -11.618  16.958  -5.061  0.00  0.00    +0.000 OA
ENDROOT
TORSDOF 0
REMARK  Name = ../refined-set-2016/4r74/4r74_pocket.pdb
REMARK  223 active torsions:
REMARK  status: ('A' for Active; 'I' for Inactive)
REMARK    1  A    between atoms: _1  and  _3
REMARK    2  A    between atoms: _3  and  _4
REMARK    3  A    between atoms: _3  and  _6
REMARK    4  A    between atoms: _6  and  _7
REMARK    5  A    between atoms: _9  and  _11
REMARK    6  A    between atoms: _11  and  _12
REMARK    7  A    between atoms: _15  and  _17
REMARK    8  A    between atoms: _17  and  _18
REMARK    9  A    between atoms: _17  and  _20
REMARK   10  A    between atoms: _20  and  _21
REMARK   11  A    between atoms: _24  and  _26
REMARK   12  A    between atoms: _26  and  _27
REMARK   13  A    between atoms: _26  and  _29
REMARK   14  A    between atoms: _29  and  _30
REMARK   15  A    between atoms: _35  and  _37
REMARK   16  A    between atoms: _37  and  _38
REMARK   17  A    between atoms: _37  and  _40
REMARK   18  A    between atoms: _40  and  _41
REMARK   19  A    between atoms: _41  and  _42
REMARK   20  A    between atoms: _44  and  _46
REMARK   21  A    between atoms: _46  and  _47
REMARK   22  A    between atoms: _46  and  _49
REMARK   23  A    between atoms: _49  and  _50
REMARK   24  A    between atoms: _50  and  _51
REMARK   25  A    between atoms: _51  and  _52
REMARK   26  A    between atoms: _61  and  _63
REMARK   27  A    between atoms: _63  and  _64
REMARK   28  A    between atoms: _63  and  _66
REMARK   29  A    between atoms: _66  and  _67
REMARK   30  A    between atoms: _72  and  _74
REMARK   31  A    between atoms: _74  and  _75
REMARK   32  A    between atoms: _77  and  _79
REMARK   33  A    between atoms: _79  and  _80
REMARK   34  A    between atoms: _79  and  _82
REMARK   35  A    between atoms: _82  and  _83
REMARK   36  A    between atoms: _85  and  _87
REMARK   37  A    between atoms: _87  and  _88
REMARK   38  A    between atoms: _90  and  _92
REMARK   39  A    between atoms: _92  and  _93
REMARK   40  A    between atoms: _92  and  _95
REMARK   41  A    between atoms: _95  and  _96
REMARK   42  A    between atoms: _98  and  _100
REMARK   43  A    between atoms: _100  and  _101
REMARK   44  A    between atoms: _100  and  _103
REMARK   45  A    between atoms: _103  and  _104
REMARK   46  A    between atoms: _107  and  _109
REMARK   47  A    between atoms: _109  and  _110
REMARK   48  A    between atoms: _109  and  _112
REMARK   49  A    between atoms: _112  and  _113
REMARK   50  A    between atoms: _119  and  _121
REMARK   51  A    between atoms: _121  and  _122
REMARK   52  A    between atoms: _121  and  _124
REMARK   53  A    between atoms: _124  and  _125
REMARK   54  A    between atoms: _135  and  _137
REMARK   55  A    between atoms: _137  and  _138
REMARK   56  A    between atoms: _137  and  _140
REMARK   57  A    between atoms: _140  and  _141
REMARK   58  A    between atoms: _146  and  _147
REMARK   59  A    between atoms: _149  and  _151
REMARK   60  A    between atoms: _151  and  _152
REMARK   61  A    between atoms: _154  and  _156
REMARK   62  A    between atoms: _156  and  _157
REMARK   63  A    between atoms: _159  and  _161
REMARK   64  A    between atoms: _161  and  _162
REMARK   65  A    between atoms: _161  and  _164
REMARK   66  A    between atoms: _164  and  _165
REMARK   67  A    between atoms: _168  and  _170
REMARK   68  A    between atoms: _170  and  _171
REMARK   69  A    between atoms: _170  and  _173
REMARK   70  A    between atoms: _173  and  _174
REMARK   71  A    between atoms: _178  and  _179
REMARK   72  A    between atoms: _184  and  _186
REMARK   73  A    between atoms: _186  and  _187
REMARK   74  A    between atoms: _186  and  _189
REMARK   75  A    between atoms: _189  and  _190
REMARK   76  A    between atoms: _190  and  _191
REMARK   77  A    between atoms: _196  and  _198
REMARK   78  A    between atoms: _198  and  _199
REMARK   79  A    between atoms: _198  and  _201
REMARK   80  A    between atoms: _204  and  _206
REMARK   81  A    between atoms: _206  and  _207
REMARK   82  A    between atoms: _206  and  _209
REMARK   83  A    between atoms: _209  and  _210
REMARK   84  A    between atoms: _215  and  _216
REMARK   85  A    between atoms: _218  and  _220
REMARK   86  A    between atoms: _220  and  _221
REMARK   87  A    between atoms: _220  and  _223
REMARK   88  A    between atoms: _223  and  _224
REMARK   89  A    between atoms: _227  and  _229
REMARK   90  A    between atoms: _229  and  _230
REMARK   91  A    between atoms: _232  and  _234
REMARK   92  A    between atoms: _234  and  _235
REMARK   93  A    between atoms: _234  and  _237
REMARK   94  A    between atoms: _237  and  _238
REMARK   95  A    between atoms: _241  and  _243
REMARK   96  A    between atoms: _243  and  _244
REMARK   97  A    between atoms: _247  and  _249
REMARK   98  A    between atoms: _249  and  _250
REMARK   99  A    between atoms: _249  and  _252
REMARK  100  A    between atoms: _252  and  _253
REMARK  101  A    between atoms: _257  and  _258
REMARK  102  A    between atoms: _263  and  _265
REMARK  103  A    between atoms: _265  and  _266
REMARK  104  A    between atoms: _265  and  _268
REMARK  105  A    between atoms: _268  and  _269
REMARK  106  A    between atoms: _271  and  _273
REMARK  107  A    between atoms: _273  and  _274
REMARK  108  A    between atoms: _273  and  _276
REMARK  109  A    between atoms: _276  and  _277
REMARK  110  A    between atoms: _279  and  _281
REMARK  111  A    between atoms: _281  and  _282
REMARK  112  A    between atoms: _284  and  _286
REMARK  113  A    between atoms: _286  and  _287
REMARK  114  A    between atoms: _286  and  _289
REMARK  115  A    between atoms: _289  and  _290
REMARK  116  A    between atoms: _293  and  _295
REMARK  117  A    between atoms: _295  and  _296
REMARK  118  A    between atoms: _299  and  _301
REMARK  119  A    between atoms: _301  and  _302
REMARK  120  A    between atoms: _301  and  _304
REMARK  121  A    between atoms: _304  and  _305
REMARK  122  A    between atoms: _310  and  _311
REMARK  123  A    between atoms: _313  and  _315
REMARK  124  A    between atoms: _315  and  _316
REMARK  125  A    between atoms: _315  and  _318
REMARK  126  A    between atoms: _318  and  _319
REMARK  127  A    between atoms: _322  and  _324
REMARK  128  A    between atoms: _324  and  _325
REMARK  129  A    between atoms: _328  and  _330
REMARK  130  A    between atoms: _330  and  _331
REMARK  131  A    between atoms: _330  and  _333
REMARK  132  A    between atoms: _333  and  _334
REMARK  133  A    between atoms: _337  and  _339
REMARK  134  A    between atoms: _339  and  _340
REMARK  135  A    between atoms: _339  and  _342
REMARK  136  A    between atoms: _342  and  _343
REMARK  137  A    between atoms: _343  and  _344
REMARK  138  A    between atoms: _344  and  _345
REMARK  139  A    between atoms: _345  and  _346
REMARK  140  A    between atoms: _350  and  _352
REMARK  141  A    between atoms: _352  and  _353
REMARK  142  A    between atoms: _352  and  _355
REMARK  143  A    between atoms: _355  and  _356
REMARK  144  A    between atoms: _358  and  _360
REMARK  145  A    between atoms: _360  and  _361
REMARK  146  A    between atoms: _363  and  _365
REMARK  147  A    between atoms: _365  and  _366
REMARK  148  A    between atoms: _365  and  _368
REMARK  149  A    between atoms: _368  and  _369
REMARK  150  A    between atoms: _372  and  _374
REMARK  151  A    between atoms: _374  and  _375
REMARK  152  A    between atoms: _374  and  _377
REMARK  153  A    between atoms: _377  and  _378
REMARK  154  A    between atoms: _381  and  _383
REMARK  155  A    between atoms: _383  and  _384
REMARK  156  A    between atoms: _387  and  _389
REMARK  157  A    between atoms: _389  and  _390
REMARK  158  A    between atoms: _389  and  _392
REMARK  159  A    between atoms: _392  and  _393
REMARK  160  A    between atoms: _393  and  _394
REMARK  161  A    between atoms: _394  and  _395
REMARK  162  A    between atoms: _404  and  _406
REMARK  163  A    between atoms: _406  and  _407
REMARK  164  A    between atoms: _409  and  _411
REMARK  165  A    between atoms: _411  and  _412
REMARK  166  A    between atoms: _411  and  _414
REMARK  167  A    between atoms: _414  and  _415
REMARK  168  A    between atoms: _421  and  _423
REMARK  169  A    between atoms: _423  and  _424
REMARK  170  A    between atoms: _423  and  _426
REMARK  171  A    between atoms: _426  and  _427
REMARK  172  A    between atoms: _430  and  _432
REMARK  173  A    between atoms: _432  and  _433
REMARK  174  A    between atoms: _432  and  _435
REMARK  175  A    between atoms: _435  and  _436
REMARK  176  A    between atoms: _441  and  _443
REMARK  177  A    between atoms: _443  and  _444
REMARK  178  A    between atoms: _443  and  _446
REMARK  179  A    between atoms: _446  and  _447
REMARK  180  A    between atoms: _450  and  _452
REMARK  181  A    between atoms: _452  and  _453
REMARK  182  A    between atoms: _452  and  _455
REMARK  183  A    between atoms: _455  and  _456
REMARK  184  A    between atoms: _461  and  _462
REMARK  185  A    between atoms: _464  and  _466
REMARK  186  A    between atoms: _466  and  _467
REMARK  187  A    between atoms: _466  and  _469
REMARK  188  A    between atoms: _469  and  _470
REMARK  189  A    between atoms: _470  and  _471
REMARK  190  A    between atoms: _474  and  _476
REMARK  191  A    between atoms: _476  and  _477
REMARK  192  A    between atoms: _476  and  _479
REMARK  193  A    between atoms: _479  and  _480
REMARK  194  A    between atoms: _483  and  _485
REMARK  195  A    between atoms: _485  and  _486
REMARK  196  A    between atoms: _488  and  _490
REMARK  197  A    between atoms: _490  and  _491
REMARK  198  A    between atoms: _493  and  _495
REMARK  199  A    between atoms: _495  and  _496
REMARK  200  A    between atoms: _495  and  _498
REMARK  201  A    between atoms: _498  and  _499
REMARK  202  A    between atoms: _499  and  _500
REMARK  203  A    between atoms: _505  and  _507
REMARK  204  A    between atoms: _507  and  _508
REMARK  205  A    between atoms: _511  and  _513
REMARK  206  A    between atoms: _513  and  _514
REMARK  207  A    between atoms: _513  and  _516
REMARK  208  A    between atoms: _516  and  _517
REMARK  209  A    between atoms: _520  and  _522
REMARK  210  A    between atoms: _522  and  _523
REMARK  211  A    between atoms: _522  and  _525
REMARK  212  A    between atoms: _525  and  _526
REMARK  213  A    between atoms: _526  and  _527
REMARK  214  A    between atoms: _532  and  _534
REMARK  215  A    between atoms: _534  and  _535
REMARK  216  A    between atoms: _534  and  _537
REMARK  217  A    between atoms: _537  and  _538
REMARK  218  A    between atoms: _541  and  _543
REMARK  219  A    between atoms: _543  and  _544
REMARK  220  A    between atoms: _543  and  _546
REMARK  221  A    between atoms: _546  and  _547
REMARK  222  A    between atoms: _547  and  _548
REMARK  223  A    between atoms: _548  and  _549
REMARK                            x       y       z     vdW  Elec       q    Type
REMARK                         _______ _______ _______ _____ _____    ______ ____
ROOT
ATOM      1  O   HOH     1       1.810  18.440  -7.948  0.00  0.00    +0.000 OA
ENDROOT
TORSDOF 0
REMARK  Name = ../refined-set-2016/4r74/4r74_pocket.pdb
REMARK  223 active torsions:
REMARK  status: ('A' for Active; 'I' for Inactive)
REMARK    1  A    between atoms: _1  and  _3
REMARK    2  A    between atoms: _3  and  _4
REMARK    3  A    between atoms: _3  and  _6
REMARK    4  A    between atoms: _6  and  _7
REMARK    5  A    between atoms: _9  and  _11
REMARK    6  A    between atoms: _11  and  _12
REMARK    7  A    between atoms: _15  and  _17
REMARK    8  A    between atoms: _17  and  _18
REMARK    9  A    between atoms: _17  and  _20
REMARK   10  A    between atoms: _20  and  _21
REMARK   11  A    between atoms: _24  and  _26
REMARK   12  A    between atoms: _26  and  _27
REMARK   13  A    between atoms: _26  and  _29
REMARK   14  A    between atoms: _29  and  _30
REMARK   15  A    between atoms: _35  and  _37
REMARK   16  A    between atoms: _37  and  _38
REMARK   17  A    between atoms: _37  and  _40
REMARK   18  A    between atoms: _40  and  _41
REMARK   19  A    between atoms: _41  and  _42
REMARK   20  A    between atoms: _44  and  _46
REMARK   21  A    between atoms: _46  and  _47
REMARK   22  A    between atoms: _46  and  _49
REMARK   23  A    between atoms: _49  and  _50
REMARK   24  A    between atoms: _50  and  _51
REMARK   25  A    between atoms: _51  and  _52
REMARK   26  A    between atoms: _61  and  _63
REMARK   27  A    between atoms: _63  and  _64
REMARK   28  A    between atoms: _63  and  _66
REMARK   29  A    between atoms: _66  and  _67
REMARK   30  A    between atoms: _72  and  _74
REMARK   31  A    between atoms: _74  and  _75
REMARK   32  A    between atoms: _77  and  _79
REMARK   33  A    between atoms: _79  and  _80
REMARK   34  A    between atoms: _79  and  _82
REMARK   35  A    between atoms: _82  and  _83
REMARK   36  A    between atoms: _85  and  _87
REMARK   37  A    between atoms: _87  and  _88
REMARK   38  A    between atoms: _90  and  _92
REMARK   39  A    between atoms: _92  and  _93
REMARK   40  A    between atoms: _92  and  _95
REMARK   41  A    between atoms: _95  and  _96
REMARK   42  A    between atoms: _98  and  _100
REMARK   43  A    between atoms: _100  and  _101
REMARK   44  A    between atoms: _100  and  _103
REMARK   45  A    between atoms: _103  and  _104
REMARK   46  A    between atoms: _107  and  _109
REMARK   47  A    between atoms: _109  and  _110
REMARK   48  A    between atoms: _109  and  _112
REMARK   49  A    between atoms: _112  and  _113
REMARK   50  A    between atoms: _119  and  _121
REMARK   51  A    between atoms: _121  and  _122
REMARK   52  A    between atoms: _121  and  _124
REMARK   53  A    between atoms: _124  and  _125
REMARK   54  A    between atoms: _135  and  _137
REMARK   55  A    between atoms: _137  and  _138
REMARK   56  A    between atoms: _137  and  _140
REMARK   57  A    between atoms: _140  and  _141
REMARK   58  A    between atoms: _146  and  _147
REMARK   59  A    between atoms: _149  and  _151
REMARK   60  A    between atoms: _151  and  _152
REMARK   61  A    between atoms: _154  and  _156
REMARK   62  A    between atoms: _156  and  _157
REMARK   63  A    between atoms: _159  and  _161
REMARK   64  A    between atoms: _161  and  _162
REMARK   65  A    between atoms: _161  and  _164
REMARK   66  A    between atoms: _164  and  _165
REMARK   67  A    between atoms: _168  and  _170
REMARK   68  A    between atoms: _170  and  _171
REMARK   69  A    between atoms: _170  and  _173
REMARK   70  A    between atoms: _173  and  _174
REMARK   71  A    between atoms: _178  and  _179
REMARK   72  A    between atoms: _184  and  _186
REMARK   73  A    between atoms: _186  and  _187
REMARK   74  A    between atoms: _186  and  _189
REMARK   75  A    between atoms: _189  and  _190
REMARK   76  A    between atoms: _190  and  _191
REMARK   77  A    between atoms: _196  and  _198
REMARK   78  A    between atoms: _198  and  _199
REMARK   79  A    between atoms: _198  and  _201
REMARK   80  A    between atoms: _204  and  _206
REMARK   81  A    between atoms: _206  and  _207
REMARK   82  A    between atoms: _206  and  _209
REMARK   83  A    between atoms: _209  and  _210
REMARK   84  A    between atoms: _215  and  _216
REMARK   85  A    between atoms: _218  and  _220
REMARK   86  A    between atoms: _220  and  _221
REMARK   87  A    between atoms: _220  and  _223
REMARK   88  A    between atoms: _223  and  _224
REMARK   89  A    between atoms: _227  and  _229
REMARK   90  A    between atoms: _229  and  _230
REMARK   91  A    between atoms: _232  and  _234
REMARK   92  A    between atoms: _234  and  _235
REMARK   93  A    between atoms: _234  and  _237
REMARK   94  A    between atoms: _237  and  _238
REMARK   95  A    between atoms: _241  and  _243
REMARK   96  A    between atoms: _243  and  _244
REMARK   97  A    between atoms: _247  and  _249
REMARK   98  A    between atoms: _249  and  _250
REMARK   99  A    between atoms: _249  and  _252
REMARK  100  A    between atoms: _252  and  _253
REMARK  101  A    between atoms: _257  and  _258
REMARK  102  A    between atoms: _263  and  _265
REMARK  103  A    between atoms: _265  and  _266
REMARK  104  A    between atoms: _265  and  _268
REMARK  105  A    between atoms: _268  and  _269
REMARK  106  A    between atoms: _271  and  _273
REMARK  107  A    between atoms: _273  and  _274
REMARK  108  A    between atoms: _273  and  _276
REMARK  109  A    between atoms: _276  and  _277
REMARK  110  A    between atoms: _279  and  _281
REMARK  111  A    between atoms: _281  and  _282
REMARK  112  A    between atoms: _284  and  _286
REMARK  113  A    between atoms: _286  and  _287
REMARK  114  A    between atoms: _286  and  _289
REMARK  115  A    between atoms: _289  and  _290
REMARK  116  A    between atoms: _293  and  _295
REMARK  117  A    between atoms: _295  and  _296
REMARK  118  A    between atoms: _299  and  _301
REMARK  119  A    between atoms: _301  and  _302
REMARK  120  A    between atoms: _301  and  _304
REMARK  121  A    between atoms: _304  and  _305
REMARK  122  A    between atoms: _310  and  _311
REMARK  123  A    between atoms: _313  and  _315
REMARK  124  A    between atoms: _315  and  _316
REMARK  125  A    between atoms: _315  and  _318
REMARK  126  A    between atoms: _318  and  _319
REMARK  127  A    between atoms: _322  and  _324
REMARK  128  A    between atoms: _324  and  _325
REMARK  129  A    between atoms: _328  and  _330
REMARK  130  A    between atoms: _330  and  _331
REMARK  131  A    between atoms: _330  and  _333
REMARK  132  A    between atoms: _333  and  _334
REMARK  133  A    between atoms: _337  and  _339
REMARK  134  A    between atoms: _339  and  _340
REMARK  135  A    between atoms: _339  and  _342
REMARK  136  A    between atoms: _342  and  _343
REMARK  137  A    between atoms: _343  and  _344
REMARK  138  A    between atoms: _344  and  _345
REMARK  139  A    between atoms: _345  and  _346
REMARK  140  A    between atoms: _350  and  _352
REMARK  141  A    between atoms: _352  and  _353
REMARK  142  A    between atoms: _352  and  _355
REMARK  143  A    between atoms: _355  and  _356
REMARK  144  A    between atoms: _358  and  _360
REMARK  145  A    between atoms: _360  and  _361
REMARK  146  A    between atoms: _363  and  _365
REMARK  147  A    between atoms: _365  and  _366
REMARK  148  A    between atoms: _365  and  _368
REMARK  149  A    between atoms: _368  and  _369
REMARK  150  A    between atoms: _372  and  _374
REMARK  151  A    between atoms: _374  and  _375
REMARK  152  A    between atoms: _374  and  _377
REMARK  153  A    between atoms: _377  and  _378
REMARK  154  A    between atoms: _381  and  _383
REMARK  155  A    between atoms: _383  and  _384
REMARK  156  A    between atoms: _387  and  _389
REMARK  157  A    between atoms: _389  and  _390
REMARK  158  A    between atoms: _389  and  _392
REMARK  159  A    between atoms: _392  and  _393
REMARK  160  A    between atoms: _393  and  _394
REMARK  161  A    between atoms: _394  and  _395
REMARK  162  A    between atoms: _404  and  _406
REMARK  163  A    between atoms: _406  and  _407
REMARK  164  A    between atoms: _409  and  _411
REMARK  165  A    between atoms: _411  and  _412
REMARK  166  A    between atoms: _411  and  _414
REMARK  167  A    between atoms: _414  and  _415
REMARK  168  A    between atoms: _421  and  _423
REMARK  169  A    between atoms: _423  and  _424
REMARK  170  A    between atoms: _423  and  _426
REMARK  171  A    between atoms: _426  and  _427
REMARK  172  A    between atoms: _430  and  _432
REMARK  173  A    between atoms: _432  and  _433
REMARK  174  A    between atoms: _432  and  _435
REMARK  175  A    between atoms: _435  and  _436
REMARK  176  A    between atoms: _441  and  _443
REMARK  177  A    between atoms: _443  and  _444
REMARK  178  A    between atoms: _443  and  _446
REMARK  179  A    between atoms: _446  and  _447
REMARK  180  A    between atoms: _450  and  _452
REMARK  181  A    between atoms: _452  and  _453
REMARK  182  A    between atoms: _452  and  _455
REMARK  183  A    between atoms: _455  and  _456
REMARK  184  A    between atoms: _461  and  _462
REMARK  185  A    between atoms: _464  and  _466
REMARK  186  A    between atoms: _466  and  _467
REMARK  187  A    between atoms: _466  and  _469
REMARK  188  A    between atoms: _469  and  _470
REMARK  189  A    between atoms: _470  and  _471
REMARK  190  A    between atoms: _474  and  _476
REMARK  191  A    between atoms: _476  and  _477
REMARK  192  A    between atoms: _476  and  _479
REMARK  193  A    between atoms: _479  and  _480
REMARK  194  A    between atoms: _483  and  _485
REMARK  195  A    between atoms: _485  and  _486
REMARK  196  A    between atoms: _488  and  _490
REMARK  197  A    between atoms: _490  and  _491
REMARK  198  A    between atoms: _493  and  _495
REMARK  199  A    between atoms: _495  and  _496
REMARK  200  A    between atoms: _495  and  _498
REMARK  201  A    between atoms: _498  and  _499
REMARK  202  A    between atoms: _499  and  _500
REMARK  203  A    between atoms: _505  and  _507
REMARK  204  A    between atoms: _507  and  _508
REMARK  205  A    between atoms: _511  and  _513
REMARK  206  A    between atoms: _513  and  _514
REMARK  207  A    between atoms: _513  and  _516
REMARK  208  A    between atoms: _516  and  _517
REMARK  209  A    between atoms: _520  and  _522
REMARK  210  A    between atoms: _522  and  _523
REMARK  211  A    between atoms: _522  and  _525
REMARK  212  A    between atoms: _525  and  _526
REMARK  213  A    between atoms: _526  and  _527
REMARK  214  A    between atoms: _532  and  _534
REMARK  215  A    between atoms: _534  and  _535
REMARK  216  A    between atoms: _534  and  _537
REMARK  217  A    between atoms: _537  and  _538
REMARK  218  A    between atoms: _541  and  _543
REMARK  219  A    between atoms: _543  and  _544
REMARK  220  A    between atoms: _543  and  _546
REMARK  221  A    between atoms: _546  and  _547
REMARK  222  A    between atoms: _547  and  _548
REMARK  223  A    between atoms: _548  and  _549
REMARK                            x       y       z     vdW  Elec       q    Type
REMARK                         _______ _______ _______ _____ _____    ______ ____
ROOT
ATOM      1  O   HOH     1      -0.952  25.968 -11.494  0.00  0.00    +0.000 OA
ENDROOT
TORSDOF 0
REMARK  Name = ../refined-set-2016/4r74/4r74_pocket.pdb
REMARK  223 active torsions:
REMARK  status: ('A' for Active; 'I' for Inactive)
REMARK    1  A    between atoms: _1  and  _3
REMARK    2  A    between atoms: _3  and  _4
REMARK    3  A    between atoms: _3  and  _6
REMARK    4  A    between atoms: _6  and  _7
REMARK    5  A    between atoms: _9  and  _11
REMARK    6  A    between atoms: _11  and  _12
REMARK    7  A    between atoms: _15  and  _17
REMARK    8  A    between atoms: _17  and  _18
REMARK    9  A    between atoms: _17  and  _20
REMARK   10  A    between atoms: _20  and  _21
REMARK   11  A    between atoms: _24  and  _26
REMARK   12  A    between atoms: _26  and  _27
REMARK   13  A    between atoms: _26  and  _29
REMARK   14  A    between atoms: _29  and  _30
REMARK   15  A    between atoms: _35  and  _37
REMARK   16  A    between atoms: _37  and  _38
REMARK   17  A    between atoms: _37  and  _40
REMARK   18  A    between atoms: _40  and  _41
REMARK   19  A    between atoms: _41  and  _42
REMARK   20  A    between atoms: _44  and  _46
REMARK   21  A    between atoms: _46  and  _47
REMARK   22  A    between atoms: _46  and  _49
REMARK   23  A    between atoms: _49  and  _50
REMARK   24  A    between atoms: _50  and  _51
REMARK   25  A    between atoms: _51  and  _52
REMARK   26  A    between atoms: _61  and  _63
REMARK   27  A    between atoms: _63  and  _64
REMARK   28  A    between atoms: _63  and  _66
REMARK   29  A    between atoms: _66  and  _67
REMARK   30  A    between atoms: _72  and  _74
REMARK   31  A    between atoms: _74  and  _75
REMARK   32  A    between atoms: _77  and  _79
REMARK   33  A    between atoms: _79  and  _80
REMARK   34  A    between atoms: _79  and  _82
REMARK   35  A    between atoms: _82  and  _83
REMARK   36  A    between atoms: _85  and  _87
REMARK   37  A    between atoms: _87  and  _88
REMARK   38  A    between atoms: _90  and  _92
REMARK   39  A    between atoms: _92  and  _93
REMARK   40  A    between atoms: _92  and  _95
REMARK   41  A    between atoms: _95  and  _96
REMARK   42  A    between atoms: _98  and  _100
REMARK   43  A    between atoms: _100  and  _101
REMARK   44  A    between atoms: _100  and  _103
REMARK   45  A    between atoms: _103  and  _104
REMARK   46  A    between atoms: _107  and  _109
REMARK   47  A    between atoms: _109  and  _110
REMARK   48  A    between atoms: _109  and  _112
REMARK   49  A    between atoms: _112  and  _113
REMARK   50  A    between atoms: _119  and  _121
REMARK   51  A    between atoms: _121  and  _122
REMARK   52  A    between atoms: _121  and  _124
REMARK   53  A    between atoms: _124  and  _125
REMARK   54  A    between atoms: _135  and  _137
REMARK   55  A    between atoms: _137  and  _138
REMARK   56  A    between atoms: _137  and  _140
REMARK   57  A    between atoms: _140  and  _141
REMARK   58  A    between atoms: _146  and  _147
REMARK   59  A    between atoms: _149  and  _151
REMARK   60  A    between atoms: _151  and  _152
REMARK   61  A    between atoms: _154  and  _156
REMARK   62  A    between atoms: _156  and  _157
REMARK   63  A    between atoms: _159  and  _161
REMARK   64  A    between atoms: _161  and  _162
REMARK   65  A    between atoms: _161  and  _164
REMARK   66  A    between atoms: _164  and  _165
REMARK   67  A    between atoms: _168  and  _170
REMARK   68  A    between atoms: _170  and  _171
REMARK   69  A    between atoms: _170  and  _173
REMARK   70  A    between atoms: _173  and  _174
REMARK   71  A    between atoms: _178  and  _179
REMARK   72  A    between atoms: _184  and  _186
REMARK   73  A    between atoms: _186  and  _187
REMARK   74  A    between atoms: _186  and  _189
REMARK   75  A    between atoms: _189  and  _190
REMARK   76  A    between atoms: _190  and  _191
REMARK   77  A    between atoms: _196  and  _198
REMARK   78  A    between atoms: _198  and  _199
REMARK   79  A    between atoms: _198  and  _201
REMARK   80  A    between atoms: _204  and  _206
REMARK   81  A    between atoms: _206  and  _207
REMARK   82  A    between atoms: _206  and  _209
REMARK   83  A    between atoms: _209  and  _210
REMARK   84  A    between atoms: _215  and  _216
REMARK   85  A    between atoms: _218  and  _220
REMARK   86  A    between atoms: _220  and  _221
REMARK   87  A    between atoms: _220  and  _223
REMARK   88  A    between atoms: _223  and  _224
REMARK   89  A    between atoms: _227  and  _229
REMARK   90  A    between atoms: _229  and  _230
REMARK   91  A    between atoms: _232  and  _234
REMARK   92  A    between atoms: _234  and  _235
REMARK   93  A    between atoms: _234  and  _237
REMARK   94  A    between atoms: _237  and  _238
REMARK   95  A    between atoms: _241  and  _243
REMARK   96  A    between atoms: _243  and  _244
REMARK   97  A    between atoms: _247  and  _249
REMARK   98  A    between atoms: _249  and  _250
REMARK   99  A    between atoms: _249  and  _252
REMARK  100  A    between atoms: _252  and  _253
REMARK  101  A    between atoms: _257  and  _258
REMARK  102  A    between atoms: _263  and  _265
REMARK  103  A    between atoms: _265  and  _266
REMARK  104  A    between atoms: _265  and  _268
REMARK  105  A    between atoms: _268  and  _269
REMARK  106  A    between atoms: _271  and  _273
REMARK  107  A    between atoms: _273  and  _274
REMARK  108  A    between atoms: _273  and  _276
REMARK  109  A    between atoms: _276  and  _277
REMARK  110  A    between atoms: _279  and  _281
REMARK  111  A    between atoms: _281  and  _282
REMARK  112  A    between atoms: _284  and  _286
REMARK  113  A    between atoms: _286  and  _287
REMARK  114  A    between atoms: _286  and  _289
REMARK  115  A    between atoms: _289  and  _290
REMARK  116  A    between atoms: _293  and  _295
REMARK  117  A    between atoms: _295  and  _296
REMARK  118  A    between atoms: _299  and  _301
REMARK  119  A    between atoms: _301  and  _302
REMARK  120  A    between atoms: _301  and  _304
REMARK  121  A    between atoms: _304  and  _305
REMARK  122  A    between atoms: _310  and  _311
REMARK  123  A    between atoms: _313  and  _315
REMARK  124  A    between atoms: _315  and  _316
REMARK  125  A    between atoms: _315  and  _318
REMARK  126  A    between atoms: _318  and  _319
REMARK  127  A    between atoms: _322  and  _324
REMARK  128  A    between atoms: _324  and  _325
REMARK  129  A    between atoms: _328  and  _330
REMARK  130  A    between atoms: _330  and  _331
REMARK  131  A    between atoms: _330  and  _333
REMARK  132  A    between atoms: _333  and  _334
REMARK  133  A    between atoms: _337  and  _339
REMARK  134  A    between atoms: _339  and  _340
REMARK  135  A    between atoms: _339  and  _342
REMARK  136  A    between atoms: _342  and  _343
REMARK  137  A    between atoms: _343  and  _344
REMARK  138  A    between atoms: _344  and  _345
REMARK  139  A    between atoms: _345  and  _346
REMARK  140  A    between atoms: _350  and  _352
REMARK  141  A    between atoms: _352  and  _353
REMARK  142  A    between atoms: _352  and  _355
REMARK  143  A    between atoms: _355  and  _356
REMARK  144  A    between atoms: _358  and  _360
REMARK  145  A    between atoms: _360  and  _361
REMARK  146  A    between atoms: _363  and  _365
REMARK  147  A    between atoms: _365  and  _366
REMARK  148  A    between atoms: _365  and  _368
REMARK  149  A    between atoms: _368  and  _369
REMARK  150  A    between atoms: _372  and  _374
REMARK  151  A    between atoms: _374  and  _375
REMARK  152  A    between atoms: _374  and  _377
REMARK  153  A    between atoms: _377  and  _378
REMARK  154  A    between atoms: _381  and  _383
REMARK  155  A    between atoms: _383  and  _384
REMARK  156  A    between atoms: _387  and  _389
REMARK  157  A    between atoms: _389  and  _390
REMARK  158  A    between atoms: _389  and  _392
REMARK  159  A    between atoms: _392  and  _393
REMARK  160  A    between atoms: _393  and  _394
REMARK  161  A    between atoms: _394  and  _395
REMARK  162  A    between atoms: _404  and  _406
REMARK  163  A    between atoms: _406  and  _407
REMARK  164  A    between atoms: _409  and  _411
REMARK  165  A    between atoms: _411  and  _412
REMARK  166  A    between atoms: _411  and  _414
REMARK  167  A    between atoms: _414  and  _415
REMARK  168  A    between atoms: _421  and  _423
REMARK  169  A    between atoms: _423  and  _424
REMARK  170  A    between atoms: _423  and  _426
REMARK  171  A    between atoms: _426  and  _427
REMARK  172  A    between atoms: _430  and  _432
REMARK  173  A    between atoms: _432  and  _433
REMARK  174  A    between atoms: _432  and  _435
REMARK  175  A    between atoms: _435  and  _436
REMARK  176  A    between atoms: _441  and  _443
REMARK  177  A    between atoms: _443  and  _444
REMARK  178  A    between atoms: _443  and  _446
REMARK  179  A    between atoms: _446  and  _447
REMARK  180  A    between atoms: _450  and  _452
REMARK  181  A    between atoms: _452  and  _453
REMARK  182  A    between atoms: _452  and  _455
REMARK  183  A    between atoms: _455  and  _456
REMARK  184  A    between atoms: _461  and  _462
REMARK  185  A    between atoms: _464  and  _466
REMARK  186  A    between atoms: _466  and  _467
REMARK  187  A    between atoms: _466  and  _469
REMARK  188  A    between atoms: _469  and  _470
REMARK  189  A    between atoms: _470  and  _471
REMARK  190  A    between atoms: _474  and  _476
REMARK  191  A    between atoms: _476  and  _477
REMARK  192  A    between atoms: _476  and  _479
REMARK  193  A    between atoms: _479  and  _480
REMARK  194  A    between atoms: _483  and  _485
REMARK  195  A    between atoms: _485  and  _486
REMARK  196  A    between atoms: _488  and  _490
REMARK  197  A    between atoms: _490  and  _491
REMARK  198  A    between atoms: _493  and  _495
REMARK  199  A    between atoms: _495  and  _496
REMARK  200  A    between atoms: _495  and  _498
REMARK  201  A    between atoms: _498  and  _499
REMARK  202  A    between atoms: _499  and  _500
REMARK  203  A    between atoms: _505  and  _507
REMARK  204  A    between atoms: _507  and  _508
REMARK  205  A    between atoms: _511  and  _513
REMARK  206  A    between atoms: _513  and  _514
REMARK  207  A    between atoms: _513  and  _516
REMARK  208  A    between atoms: _516  and  _517
REMARK  209  A    between atoms: _520  and  _522
REMARK  210  A    between atoms: _522  and  _523
REMARK  211  A    between atoms: _522  and  _525
REMARK  212  A    between atoms: _525  and  _526
REMARK  213  A    between atoms: _526  and  _527
REMARK  214  A    between atoms: _532  and  _534
REMARK  215  A    between atoms: _534  and  _535
REMARK  216  A    between atoms: _534  and  _537
REMARK  217  A    between atoms: _537  and  _538
REMARK  218  A    between atoms: _541  and  _543
REMARK  219  A    between atoms: _543  and  _544
REMARK  220  A    between atoms: _543  and  _546
REMARK  221  A    between atoms: _546  and  _547
REMARK  222  A    between atoms: _547  and  _548
REMARK  223  A    between atoms: _548  and  _549
REMARK                            x       y       z     vdW  Elec       q    Type
REMARK                         _______ _______ _______ _____ _____    ______ ____
ROOT
ATOM      1  O   HOH     1      -8.940  20.050  -7.140  0.00  0.00    +0.000 OA
ENDROOT
TORSDOF 0
REMARK  Name = ../refined-set-2016/4r74/4r74_pocket.pdb
REMARK  223 active torsions:
REMARK  status: ('A' for Active; 'I' for Inactive)
REMARK    1  A    between atoms: _1  and  _3
REMARK    2  A    between atoms: _3  and  _4
REMARK    3  A    between atoms: _3  and  _6
REMARK    4  A    between atoms: _6  and  _7
REMARK    5  A    between atoms: _9  and  _11
REMARK    6  A    between atoms: _11  and  _12
REMARK    7  A    between atoms: _15  and  _17
REMARK    8  A    between atoms: _17  and  _18
REMARK    9  A    between atoms: _17  and  _20
REMARK   10  A    between atoms: _20  and  _21
REMARK   11  A    between atoms: _24  and  _26
REMARK   12  A    between atoms: _26  and  _27
REMARK   13  A    between atoms: _26  and  _29
REMARK   14  A    between atoms: _29  and  _30
REMARK   15  A    between atoms: _35  and  _37
REMARK   16  A    between atoms: _37  and  _38
REMARK   17  A    between atoms: _37  and  _40
REMARK   18  A    between atoms: _40  and  _41
REMARK   19  A    between atoms: _41  and  _42
REMARK   20  A    between atoms: _44  and  _46
REMARK   21  A    between atoms: _46  and  _47
REMARK   22  A    between atoms: _46  and  _49
REMARK   23  A    between atoms: _49  and  _50
REMARK   24  A    between atoms: _50  and  _51
REMARK   25  A    between atoms: _51  and  _52
REMARK   26  A    between atoms: _61  and  _63
REMARK   27  A    between atoms: _63  and  _64
REMARK   28  A    between atoms: _63  and  _66
REMARK   29  A    between atoms: _66  and  _67
REMARK   30  A    between atoms: _72  and  _74
REMARK   31  A    between atoms: _74  and  _75
REMARK   32  A    between atoms: _77  and  _79
REMARK   33  A    between atoms: _79  and  _80
REMARK   34  A    between atoms: _79  and  _82
REMARK   35  A    between atoms: _82  and  _83
REMARK   36  A    between atoms: _85  and  _87
REMARK   37  A    between atoms: _87  and  _88
REMARK   38  A    between atoms: _90  and  _92
REMARK   39  A    between atoms: _92  and  _93
REMARK   40  A    between atoms: _92  and  _95
REMARK   41  A    between atoms: _95  and  _96
REMARK   42  A    between atoms: _98  and  _100
REMARK   43  A    between atoms: _100  and  _101
REMARK   44  A    between atoms: _100  and  _103
REMARK   45  A    between atoms: _103  and  _104
REMARK   46  A    between atoms: _107  and  _109
REMARK   47  A    between atoms: _109  and  _110
REMARK   48  A    between atoms: _109  and  _112
REMARK   49  A    between atoms: _112  and  _113
REMARK   50  A    between atoms: _119  and  _121
REMARK   51  A    between atoms: _121  and  _122
REMARK   52  A    between atoms: _121  and  _124
REMARK   53  A    between atoms: _124  and  _125
REMARK   54  A    between atoms: _135  and  _137
REMARK   55  A    between atoms: _137  and  _138
REMARK   56  A    between atoms: _137  and  _140
REMARK   57  A    between atoms: _140  and  _141
REMARK   58  A    between atoms: _146  and  _147
REMARK   59  A    between atoms: _149  and  _151
REMARK   60  A    between atoms: _151  and  _152
REMARK   61  A    between atoms: _154  and  _156
REMARK   62  A    between atoms: _156  and  _157
REMARK   63  A    between atoms: _159  and  _161
REMARK   64  A    between atoms: _161  and  _162
REMARK   65  A    between atoms: _161  and  _164
REMARK   66  A    between atoms: _164  and  _165
REMARK   67  A    between atoms: _168  and  _170
REMARK   68  A    between atoms: _170  and  _171
REMARK   69  A    between atoms: _170  and  _173
REMARK   70  A    between atoms: _173  and  _174
REMARK   71  A    between atoms: _178  and  _179
REMARK   72  A    between atoms: _184  and  _186
REMARK   73  A    between atoms: _186  and  _187
REMARK   74  A    between atoms: _186  and  _189
REMARK   75  A    between atoms: _189  and  _190
REMARK   76  A    between atoms: _190  and  _191
REMARK   77  A    between atoms: _196  and  _198
REMARK   78  A    between atoms: _198  and  _199
REMARK   79  A    between atoms: _198  and  _201
REMARK   80  A    between atoms: _204  and  _206
REMARK   81  A    between atoms: _206  and  _207
REMARK   82  A    between atoms: _206  and  _209
REMARK   83  A    between atoms: _209  and  _210
REMARK   84  A    between atoms: _215  and  _216
REMARK   85  A    between atoms: _218  and  _220
REMARK   86  A    between atoms: _220  and  _221
REMARK   87  A    between atoms: _220  and  _223
REMARK   88  A    between atoms: _223  and  _224
REMARK   89  A    between atoms: _227  and  _229
REMARK   90  A    between atoms: _229  and  _230
REMARK   91  A    between atoms: _232  and  _234
REMARK   92  A    between atoms: _234  and  _235
REMARK   93  A    between atoms: _234  and  _237
REMARK   94  A    between atoms: _237  and  _238
REMARK   95  A    between atoms: _241  and  _243
REMARK   96  A    between atoms: _243  and  _244
REMARK   97  A    between atoms: _247  and  _249
REMARK   98  A    between atoms: _249  and  _250
REMARK   99  A    between atoms: _249  and  _252
REMARK  100  A    between atoms: _252  and  _253
REMARK  101  A    between atoms: _257  and  _258
REMARK  102  A    between atoms: _263  and  _265
REMARK  103  A    between atoms: _265  and  _266
REMARK  104  A    between atoms: _265  and  _268
REMARK  105  A    between atoms: _268  and  _269
REMARK  106  A    between atoms: _271  and  _273
REMARK  107  A    between atoms: _273  and  _274
REMARK  108  A    between atoms: _273  and  _276
REMARK  109  A    between atoms: _276  and  _277
REMARK  110  A    between atoms: _279  and  _281
REMARK  111  A    between atoms: _281  and  _282
REMARK  112  A    between atoms: _284  and  _286
REMARK  113  A    between atoms: _286  and  _287
REMARK  114  A    between atoms: _286  and  _289
REMARK  115  A    between atoms: _289  and  _290
REMARK  116  A    between atoms: _293  and  _295
REMARK  117  A    between atoms: _295  and  _296
REMARK  118  A    between atoms: _299  and  _301
REMARK  119  A    between atoms: _301  and  _302
REMARK  120  A    between atoms: _301  and  _304
REMARK  121  A    between atoms: _304  and  _305
REMARK  122  A    between atoms: _310  and  _311
REMARK  123  A    between atoms: _313  and  _315
REMARK  124  A    between atoms: _315  and  _316
REMARK  125  A    between atoms: _315  and  _318
REMARK  126  A    between atoms: _318  and  _319
REMARK  127  A    between atoms: _322  and  _324
REMARK  128  A    between atoms: _324  and  _325
REMARK  129  A    between atoms: _328  and  _330
REMARK  130  A    between atoms: _330  and  _331
REMARK  131  A    between atoms: _330  and  _333
REMARK  132  A    between atoms: _333  and  _334
REMARK  133  A    between atoms: _337  and  _339
REMARK  134  A    between atoms: _339  and  _340
REMARK  135  A    between atoms: _339  and  _342
REMARK  136  A    between atoms: _342  and  _343
REMARK  137  A    between atoms: _343  and  _344
REMARK  138  A    between atoms: _344  and  _345
REMARK  139  A    between atoms: _345  and  _346
REMARK  140  A    between atoms: _350  and  _352
REMARK  141  A    between atoms: _352  and  _353
REMARK  142  A    between atoms: _352  and  _355
REMARK  143  A    between atoms: _355  and  _356
REMARK  144  A    between atoms: _358  and  _360
REMARK  145  A    between atoms: _360  and  _361
REMARK  146  A    between atoms: _363  and  _365
REMARK  147  A    between atoms: _365  and  _366
REMARK  148  A    between atoms: _365  and  _368
REMARK  149  A    between atoms: _368  and  _369
REMARK  150  A    between atoms: _372  and  _374
REMARK  151  A    between atoms: _374  and  _375
REMARK  152  A    between atoms: _374  and  _377
REMARK  153  A    between atoms: _377  and  _378
REMARK  154  A    between atoms: _381  and  _383
REMARK  155  A    between atoms: _383  and  _384
REMARK  156  A    between atoms: _387  and  _389
REMARK  157  A    between atoms: _389  and  _390
REMARK  158  A    between atoms: _389  and  _392
REMARK  159  A    between atoms: _392  and  _393
REMARK  160  A    between atoms: _393  and  _394
REMARK  161  A    between atoms: _394  and  _395
REMARK  162  A    between atoms: _404  and  _406
REMARK  163  A    between atoms: _406  and  _407
REMARK  164  A    between atoms: _409  and  _411
REMARK  165  A    between atoms: _411  and  _412
REMARK  166  A    between atoms: _411  and  _414
REMARK  167  A    between atoms: _414  and  _415
REMARK  168  A    between atoms: _421  and  _423
REMARK  169  A    between atoms: _423  and  _424
REMARK  170  A    between atoms: _423  and  _426
REMARK  171  A    between atoms: _426  and  _427
REMARK  172  A    between atoms: _430  and  _432
REMARK  173  A    between atoms: _432  and  _433
REMARK  174  A    between atoms: _432  and  _435
REMARK  175  A    between atoms: _435  and  _436
REMARK  176  A    between atoms: _441  and  _443
REMARK  177  A    between atoms: _443  and  _444
REMARK  178  A    between atoms: _443  and  _446
REMARK  179  A    between atoms: _446  and  _447
REMARK  180  A    between atoms: _450  and  _452
REMARK  181  A    between atoms: _452  and  _453
REMARK  182  A    between atoms: _452  and  _455
REMARK  183  A    between atoms: _455  and  _456
REMARK  184  A    between atoms: _461  and  _462
REMARK  185  A    between atoms: _464  and  _466
REMARK  186  A    between atoms: _466  and  _467
REMARK  187  A    between atoms: _466  and  _469
REMARK  188  A    between atoms: _469  and  _470
REMARK  189  A    between atoms: _470  and  _471
REMARK  190  A    between atoms: _474  and  _476
REMARK  191  A    between atoms: _476  and  _477
REMARK  192  A    between atoms: _476  and  _479
REMARK  193  A    between atoms: _479  and  _480
REMARK  194  A    between atoms: _483  and  _485
REMARK  195  A    between atoms: _485  and  _486
REMARK  196  A    between atoms: _488  and  _490
REMARK  197  A    between atoms: _490  and  _491
REMARK  198  A    between atoms: _493  and  _495
REMARK  199  A    between atoms: _495  and  _496
REMARK  200  A    between atoms: _495  and  _498
REMARK  201  A    between atoms: _498  and  _499
REMARK  202  A    between atoms: _499  and  _500
REMARK  203  A    between atoms: _505  and  _507
REMARK  204  A    between atoms: _507  and  _508
REMARK  205  A    between atoms: _511  and  _513
REMARK  206  A    between atoms: _513  and  _514
REMARK  207  A    between atoms: _513  and  _516
REMARK  208  A    between atoms: _516  and  _517
REMARK  209  A    between atoms: _520  and  _522
REMARK  210  A    between atoms: _522  and  _523
REMARK  211  A    between atoms: _522  and  _525
REMARK  212  A    between atoms: _525  and  _526
REMARK  213  A    between atoms: _526  and  _527
REMARK  214  A    between atoms: _532  and  _534
REMARK  215  A    between atoms: _534  and  _535
REMARK  216  A    between atoms: _534  and  _537
REMARK  217  A    between atoms: _537  and  _538
REMARK  218  A    between atoms: _541  and  _543
REMARK  219  A    between atoms: _543  and  _544
REMARK  220  A    between atoms: _543  and  _546
REMARK  221  A    between atoms: _546  and  _547
REMARK  222  A    between atoms: _547  and  _548
REMARK  223  A    between atoms: _548  and  _549
REMARK                            x       y       z     vdW  Elec       q    Type
REMARK                         _______ _______ _______ _____ _____    ______ ____
ROOT
ATOM      1  O   HOH     1      -8.847  19.586 -10.821  0.00  0.00    +0.000 OA
ENDROOT
TORSDOF 0
REMARK  Name = ../refined-set-2016/4r74/4r74_pocket.pdb
REMARK  223 active torsions:
REMARK  status: ('A' for Active; 'I' for Inactive)
REMARK    1  A    between atoms: _1  and  _3
REMARK    2  A    between atoms: _3  and  _4
REMARK    3  A    between atoms: _3  and  _6
REMARK    4  A    between atoms: _6  and  _7
REMARK    5  A    between atoms: _9  and  _11
REMARK    6  A    between atoms: _11  and  _12
REMARK    7  A    between atoms: _15  and  _17
REMARK    8  A    between atoms: _17  and  _18
REMARK    9  A    between atoms: _17  and  _20
REMARK   10  A    between atoms: _20  and  _21
REMARK   11  A    between atoms: _24  and  _26
REMARK   12  A    between atoms: _26  and  _27
REMARK   13  A    between atoms: _26  and  _29
REMARK   14  A    between atoms: _29  and  _30
REMARK   15  A    between atoms: _35  and  _37
REMARK   16  A    between atoms: _37  and  _38
REMARK   17  A    between atoms: _37  and  _40
REMARK   18  A    between atoms: _40  and  _41
REMARK   19  A    between atoms: _41  and  _42
REMARK   20  A    between atoms: _44  and  _46
REMARK   21  A    between atoms: _46  and  _47
REMARK   22  A    between atoms: _46  and  _49
REMARK   23  A    between atoms: _49  and  _50
REMARK   24  A    between atoms: _50  and  _51
REMARK   25  A    between atoms: _51  and  _52
REMARK   26  A    between atoms: _61  and  _63
REMARK   27  A    between atoms: _63  and  _64
REMARK   28  A    between atoms: _63  and  _66
REMARK   29  A    between atoms: _66  and  _67
REMARK   30  A    between atoms: _72  and  _74
REMARK   31  A    between atoms: _74  and  _75
REMARK   32  A    between atoms: _77  and  _79
REMARK   33  A    between atoms: _79  and  _80
REMARK   34  A    between atoms: _79  and  _82
REMARK   35  A    between atoms: _82  and  _83
REMARK   36  A    between atoms: _85  and  _87
REMARK   37  A    between atoms: _87  and  _88
REMARK   38  A    between atoms: _90  and  _92
REMARK   39  A    between atoms: _92  and  _93
REMARK   40  A    between atoms: _92  and  _95
REMARK   41  A    between atoms: _95  and  _96
REMARK   42  A    between atoms: _98  and  _100
REMARK   43  A    between atoms: _100  and  _101
REMARK   44  A    between atoms: _100  and  _103
REMARK   45  A    between atoms: _103  and  _104
REMARK   46  A    between atoms: _107  and  _109
REMARK   47  A    between atoms: _109  and  _110
REMARK   48  A    between atoms: _109  and  _112
REMARK   49  A    between atoms: _112  and  _113
REMARK   50  A    between atoms: _119  and  _121
REMARK   51  A    between atoms: _121  and  _122
REMARK   52  A    between atoms: _121  and  _124
REMARK   53  A    between atoms: _124  and  _125
REMARK   54  A    between atoms: _135  and  _137
REMARK   55  A    between atoms: _137  and  _138
REMARK   56  A    between atoms: _137  and  _140
REMARK   57  A    between atoms: _140  and  _141
REMARK   58  A    between atoms: _146  and  _147
REMARK   59  A    between atoms: _149  and  _151
REMARK   60  A    between atoms: _151  and  _152
REMARK   61  A    between atoms: _154  and  _156
REMARK   62  A    between atoms: _156  and  _157
REMARK   63  A    between atoms: _159  and  _161
REMARK   64  A    between atoms: _161  and  _162
REMARK   65  A    between atoms: _161  and  _164
REMARK   66  A    between atoms: _164  and  _165
REMARK   67  A    between atoms: _168  and  _170
REMARK   68  A    between atoms: _170  and  _171
REMARK   69  A    between atoms: _170  and  _173
REMARK   70  A    between atoms: _173  and  _174
REMARK   71  A    between atoms: _178  and  _179
REMARK   72  A    between atoms: _184  and  _186
REMARK   73  A    between atoms: _186  and  _187
REMARK   74  A    between atoms: _186  and  _189
REMARK   75  A    between atoms: _189  and  _190
REMARK   76  A    between atoms: _190  and  _191
REMARK   77  A    between atoms: _196  and  _198
REMARK   78  A    between atoms: _198  and  _199
REMARK   79  A    between atoms: _198  and  _201
REMARK   80  A    between atoms: _204  and  _206
REMARK   81  A    between atoms: _206  and  _207
REMARK   82  A    between atoms: _206  and  _209
REMARK   83  A    between atoms: _209  and  _210
REMARK   84  A    between atoms: _215  and  _216
REMARK   85  A    between atoms: _218  and  _220
REMARK   86  A    between atoms: _220  and  _221
REMARK   87  A    between atoms: _220  and  _223
REMARK   88  A    between atoms: _223  and  _224
REMARK   89  A    between atoms: _227  and  _229
REMARK   90  A    between atoms: _229  and  _230
REMARK   91  A    between atoms: _232  and  _234
REMARK   92  A    between atoms: _234  and  _235
REMARK   93  A    between atoms: _234  and  _237
REMARK   94  A    between atoms: _237  and  _238
REMARK   95  A    between atoms: _241  and  _243
REMARK   96  A    between atoms: _243  and  _244
REMARK   97  A    between atoms: _247  and  _249
REMARK   98  A    between atoms: _249  and  _250
REMARK   99  A    between atoms: _249  and  _252
REMARK  100  A    between atoms: _252  and  _253
REMARK  101  A    between atoms: _257  and  _258
REMARK  102  A    between atoms: _263  and  _265
REMARK  103  A    between atoms: _265  and  _266
REMARK  104  A    between atoms: _265  and  _268
REMARK  105  A    between atoms: _268  and  _269
REMARK  106  A    between atoms: _271  and  _273
REMARK  107  A    between atoms: _273  and  _274
REMARK  108  A    between atoms: _273  and  _276
REMARK  109  A    between atoms: _276  and  _277
REMARK  110  A    between atoms: _279  and  _281
REMARK  111  A    between atoms: _281  and  _282
REMARK  112  A    between atoms: _284  and  _286
REMARK  113  A    between atoms: _286  and  _287
REMARK  114  A    between atoms: _286  and  _289
REMARK  115  A    between atoms: _289  and  _290
REMARK  116  A    between atoms: _293  and  _295
REMARK  117  A    between atoms: _295  and  _296
REMARK  118  A    between atoms: _299  and  _301
REMARK  119  A    between atoms: _301  and  _302
REMARK  120  A    between atoms: _301  and  _304
REMARK  121  A    between atoms: _304  and  _305
REMARK  122  A    between atoms: _310  and  _311
REMARK  123  A    between atoms: _313  and  _315
REMARK  124  A    between atoms: _315  and  _316
REMARK  125  A    between atoms: _315  and  _318
REMARK  126  A    between atoms: _318  and  _319
REMARK  127  A    between atoms: _322  and  _324
REMARK  128  A    between atoms: _324  and  _325
REMARK  129  A    between atoms: _328  and  _330
REMARK  130  A    between atoms: _330  and  _331
REMARK  131  A    between atoms: _330  and  _333
REMARK  132  A    between atoms: _333  and  _334
REMARK  133  A    between atoms: _337  and  _339
REMARK  134  A    between atoms: _339  and  _340
REMARK  135  A    between atoms: _339  and  _342
REMARK  136  A    between atoms: _342  and  _343
REMARK  137  A    between atoms: _343  and  _344
REMARK  138  A    between atoms: _344  and  _345
REMARK  139  A    between atoms: _345  and  _346
REMARK  140  A    between atoms: _350  and  _352
REMARK  141  A    between atoms: _352  and  _353
REMARK  142  A    between atoms: _352  and  _355
REMARK  143  A    between atoms: _355  and  _356
REMARK  144  A    between atoms: _358  and  _360
REMARK  145  A    between atoms: _360  and  _361
REMARK  146  A    between atoms: _363  and  _365
REMARK  147  A    between atoms: _365  and  _366
REMARK  148  A    between atoms: _365  and  _368
REMARK  149  A    between atoms: _368  and  _369
REMARK  150  A    between atoms: _372  and  _374
REMARK  151  A    between atoms: _374  and  _375
REMARK  152  A    between atoms: _374  and  _377
REMARK  153  A    between atoms: _377  and  _378
REMARK  154  A    between atoms: _381  and  _383
REMARK  155  A    between atoms: _383  and  _384
REMARK  156  A    between atoms: _387  and  _389
REMARK  157  A    between atoms: _389  and  _390
REMARK  158  A    between atoms: _389  and  _392
REMARK  159  A    between atoms: _392  and  _393
REMARK  160  A    between atoms: _393  and  _394
REMARK  161  A    between atoms: _394  and  _395
REMARK  162  A    between atoms: _404  and  _406
REMARK  163  A    between atoms: _406  and  _407
REMARK  164  A    between atoms: _409  and  _411
REMARK  165  A    between atoms: _411  and  _412
REMARK  166  A    between atoms: _411  and  _414
REMARK  167  A    between atoms: _414  and  _415
REMARK  168  A    between atoms: _421  and  _423
REMARK  169  A    between atoms: _423  and  _424
REMARK  170  A    between atoms: _423  and  _426
REMARK  171  A    between atoms: _426  and  _427
REMARK  172  A    between atoms: _430  and  _432
REMARK  173  A    between atoms: _432  and  _433
REMARK  174  A    between atoms: _432  and  _435
REMARK  175  A    between atoms: _435  and  _436
REMARK  176  A    between atoms: _441  and  _443
REMARK  177  A    between atoms: _443  and  _444
REMARK  178  A    between atoms: _443  and  _446
REMARK  179  A    between atoms: _446  and  _447
REMARK  180  A    between atoms: _450  and  _452
REMARK  181  A    between atoms: _452  and  _453
REMARK  182  A    between atoms: _452  and  _455
REMARK  183  A    between atoms: _455  and  _456
REMARK  184  A    between atoms: _461  and  _462
REMARK  185  A    between atoms: _464  and  _466
REMARK  186  A    between atoms: _466  and  _467
REMARK  187  A    between atoms: _466  and  _469
REMARK  188  A    between atoms: _469  and  _470
REMARK  189  A    between atoms: _470  and  _471
REMARK  190  A    between atoms: _474  and  _476
REMARK  191  A    between atoms: _476  and  _477
REMARK  192  A    between atoms: _476  and  _479
REMARK  193  A    between atoms: _479  and  _480
REMARK  194  A    between atoms: _483  and  _485
REMARK  195  A    between atoms: _485  and  _486
REMARK  196  A    between atoms: _488  and  _490
REMARK  197  A    between atoms: _490  and  _491
REMARK  198  A    between atoms: _493  and  _495
REMARK  199  A    between atoms: _495  and  _496
REMARK  200  A    between atoms: _495  and  _498
REMARK  201  A    between atoms: _498  and  _499
REMARK  202  A    between atoms: _499  and  _500
REMARK  203  A    between atoms: _505  and  _507
REMARK  204  A    between atoms: _507  and  _508
REMARK  205  A    between atoms: _511  and  _513
REMARK  206  A    between atoms: _513  and  _514
REMARK  207  A    between atoms: _513  and  _516
REMARK  208  A    between atoms: _516  and  _517
REMARK  209  A    between atoms: _520  and  _522
REMARK  210  A    between atoms: _522  and  _523
REMARK  211  A    between atoms: _522  and  _525
REMARK  212  A    between atoms: _525  and  _526
REMARK  213  A    between atoms: _526  and  _527
REMARK  214  A    between atoms: _532  and  _534
REMARK  215  A    between atoms: _534  and  _535
REMARK  216  A    between atoms: _534  and  _537
REMARK  217  A    between atoms: _537  and  _538
REMARK  218  A    between atoms: _541  and  _543
REMARK  219  A    between atoms: _543  and  _544
REMARK  220  A    between atoms: _543  and  _546
REMARK  221  A    between atoms: _546  and  _547
REMARK  222  A    between atoms: _547  and  _548
REMARK  223  A    between atoms: _548  and  _549
REMARK                            x       y       z     vdW  Elec       q    Type
REMARK                         _______ _______ _______ _____ _____    ______ ____
ROOT
ATOM      1  O   HOH     1     -12.304  26.527  -1.133  0.00  0.00    +0.000 OA
ENDROOT
TORSDOF 0
REMARK  Name = ../refined-set-2016/4r74/4r74_pocket.pdb
REMARK  223 active torsions:
REMARK  status: ('A' for Active; 'I' for Inactive)
REMARK    1  A    between atoms: _1  and  _3
REMARK    2  A    between atoms: _3  and  _4
REMARK    3  A    between atoms: _3  and  _6
REMARK    4  A    between atoms: _6  and  _7
REMARK    5  A    between atoms: _9  and  _11
REMARK    6  A    between atoms: _11  and  _12
REMARK    7  A    between atoms: _15  and  _17
REMARK    8  A    between atoms: _17  and  _18
REMARK    9  A    between atoms: _17  and  _20
REMARK   10  A    between atoms: _20  and  _21
REMARK   11  A    between atoms: _24  and  _26
REMARK   12  A    between atoms: _26  and  _27
REMARK   13  A    between atoms: _26  and  _29
REMARK   14  A    between atoms: _29  and  _30
REMARK   15  A    between atoms: _35  and  _37
REMARK   16  A    between atoms: _37  and  _38
REMARK   17  A    between atoms: _37  and  _40
REMARK   18  A    between atoms: _40  and  _41
REMARK   19  A    between atoms: _41  and  _42
REMARK   20  A    between atoms: _44  and  _46
REMARK   21  A    between atoms: _46  and  _47
REMARK   22  A    between atoms: _46  and  _49
REMARK   23  A    between atoms: _49  and  _50
REMARK   24  A    between atoms: _50  and  _51
REMARK   25  A    between atoms: _51  and  _52
REMARK   26  A    between atoms: _61  and  _63
REMARK   27  A    between atoms: _63  and  _64
REMARK   28  A    between atoms: _63  and  _66
REMARK   29  A    between atoms: _66  and  _67
REMARK   30  A    between atoms: _72  and  _74
REMARK   31  A    between atoms: _74  and  _75
REMARK   32  A    between atoms: _77  and  _79
REMARK   33  A    between atoms: _79  and  _80
REMARK   34  A    between atoms: _79  and  _82
REMARK   35  A    between atoms: _82  and  _83
REMARK   36  A    between atoms: _85  and  _87
REMARK   37  A    between atoms: _87  and  _88
REMARK   38  A    between atoms: _90  and  _92
REMARK   39  A    between atoms: _92  and  _93
REMARK   40  A    between atoms: _92  and  _95
REMARK   41  A    between atoms: _95  and  _96
REMARK   42  A    between atoms: _98  and  _100
REMARK   43  A    between atoms: _100  and  _101
REMARK   44  A    between atoms: _100  and  _103
REMARK   45  A    between atoms: _103  and  _104
REMARK   46  A    between atoms: _107  and  _109
REMARK   47  A    between atoms: _109  and  _110
REMARK   48  A    between atoms: _109  and  _112
REMARK   49  A    between atoms: _112  and  _113
REMARK   50  A    between atoms: _119  and  _121
REMARK   51  A    between atoms: _121  and  _122
REMARK   52  A    between atoms: _121  and  _124
REMARK   53  A    between atoms: _124  and  _125
REMARK   54  A    between atoms: _135  and  _137
REMARK   55  A    between atoms: _137  and  _138
REMARK   56  A    between atoms: _137  and  _140
REMARK   57  A    between atoms: _140  and  _141
REMARK   58  A    between atoms: _146  and  _147
REMARK   59  A    between atoms: _149  and  _151
REMARK   60  A    between atoms: _151  and  _152
REMARK   61  A    between atoms: _154  and  _156
REMARK   62  A    between atoms: _156  and  _157
REMARK   63  A    between atoms: _159  and  _161
REMARK   64  A    between atoms: _161  and  _162
REMARK   65  A    between atoms: _161  and  _164
REMARK   66  A    between atoms: _164  and  _165
REMARK   67  A    between atoms: _168  and  _170
REMARK   68  A    between atoms: _170  and  _171
REMARK   69  A    between atoms: _170  and  _173
REMARK   70  A    between atoms: _173  and  _174
REMARK   71  A    between atoms: _178  and  _179
REMARK   72  A    between atoms: _184  and  _186
REMARK   73  A    between atoms: _186  and  _187
REMARK   74  A    between atoms: _186  and  _189
REMARK   75  A    between atoms: _189  and  _190
REMARK   76  A    between atoms: _190  and  _191
REMARK   77  A    between atoms: _196  and  _198
REMARK   78  A    between atoms: _198  and  _199
REMARK   79  A    between atoms: _198  and  _201
REMARK   80  A    between atoms: _204  and  _206
REMARK   81  A    between atoms: _206  and  _207
REMARK   82  A    between atoms: _206  and  _209
REMARK   83  A    between atoms: _209  and  _210
REMARK   84  A    between atoms: _215  and  _216
REMARK   85  A    between atoms: _218  and  _220
REMARK   86  A    between atoms: _220  and  _221
REMARK   87  A    between atoms: _220  and  _223
REMARK   88  A    between atoms: _223  and  _224
REMARK   89  A    between atoms: _227  and  _229
REMARK   90  A    between atoms: _229  and  _230
REMARK   91  A    between atoms: _232  and  _234
REMARK   92  A    between atoms: _234  and  _235
REMARK   93  A    between atoms: _234  and  _237
REMARK   94  A    between atoms: _237  and  _238
REMARK   95  A    between atoms: _241  and  _243
REMARK   96  A    between atoms: _243  and  _244
REMARK   97  A    between atoms: _247  and  _249
REMARK   98  A    between atoms: _249  and  _250
REMARK   99  A    between atoms: _249  and  _252
REMARK  100  A    between atoms: _252  and  _253
REMARK  101  A    between atoms: _257  and  _258
REMARK  102  A    between atoms: _263  and  _265
REMARK  103  A    between atoms: _265  and  _266
REMARK  104  A    between atoms: _265  and  _268
REMARK  105  A    between atoms: _268  and  _269
REMARK  106  A    between atoms: _271  and  _273
REMARK  107  A    between atoms: _273  and  _274
REMARK  108  A    between atoms: _273  and  _276
REMARK  109  A    between atoms: _276  and  _277
REMARK  110  A    between atoms: _279  and  _281
REMARK  111  A    between atoms: _281  and  _282
REMARK  112  A    between atoms: _284  and  _286
REMARK  113  A    between atoms: _286  and  _287
REMARK  114  A    between atoms: _286  and  _289
REMARK  115  A    between atoms: _289  and  _290
REMARK  116  A    between atoms: _293  and  _295
REMARK  117  A    between atoms: _295  and  _296
REMARK  118  A    between atoms: _299  and  _301
REMARK  119  A    between atoms: _301  and  _302
REMARK  120  A    between atoms: _301  and  _304
REMARK  121  A    between atoms: _304  and  _305
REMARK  122  A    between atoms: _310  and  _311
REMARK  123  A    between atoms: _313  and  _315
REMARK  124  A    between atoms: _315  and  _316
REMARK  125  A    between atoms: _315  and  _318
REMARK  126  A    between atoms: _318  and  _319
REMARK  127  A    between atoms: _322  and  _324
REMARK  128  A    between atoms: _324  and  _325
REMARK  129  A    between atoms: _328  and  _330
REMARK  130  A    between atoms: _330  and  _331
REMARK  131  A    between atoms: _330  and  _333
REMARK  132  A    between atoms: _333  and  _334
REMARK  133  A    between atoms: _337  and  _339
REMARK  134  A    between atoms: _339  and  _340
REMARK  135  A    between atoms: _339  and  _342
REMARK  136  A    between atoms: _342  and  _343
REMARK  137  A    between atoms: _343  and  _344
REMARK  138  A    between atoms: _344  and  _345
REMARK  139  A    between atoms: _345  and  _346
REMARK  140  A    between atoms: _350  and  _352
REMARK  141  A    between atoms: _352  and  _353
REMARK  142  A    between atoms: _352  and  _355
REMARK  143  A    between atoms: _355  and  _356
REMARK  144  A    between atoms: _358  and  _360
REMARK  145  A    between atoms: _360  and  _361
REMARK  146  A    between atoms: _363  and  _365
REMARK  147  A    between atoms: _365  and  _366
REMARK  148  A    between atoms: _365  and  _368
REMARK  149  A    between atoms: _368  and  _369
REMARK  150  A    between atoms: _372  and  _374
REMARK  151  A    between atoms: _374  and  _375
REMARK  152  A    between atoms: _374  and  _377
REMARK  153  A    between atoms: _377  and  _378
REMARK  154  A    between atoms: _381  and  _383
REMARK  155  A    between atoms: _383  and  _384
REMARK  156  A    between atoms: _387  and  _389
REMARK  157  A    between atoms: _389  and  _390
REMARK  158  A    between atoms: _389  and  _392
REMARK  159  A    between atoms: _392  and  _393
REMARK  160  A    between atoms: _393  and  _394
REMARK  161  A    between atoms: _394  and  _395
REMARK  162  A    between atoms: _404  and  _406
REMARK  163  A    between atoms: _406  and  _407
REMARK  164  A    between atoms: _409  and  _411
REMARK  165  A    between atoms: _411  and  _412
REMARK  166  A    between atoms: _411  and  _414
REMARK  167  A    between atoms: _414  and  _415
REMARK  168  A    between atoms: _421  and  _423
REMARK  169  A    between atoms: _423  and  _424
REMARK  170  A    between atoms: _423  and  _426
REMARK  171  A    between atoms: _426  and  _427
REMARK  172  A    between atoms: _430  and  _432
REMARK  173  A    between atoms: _432  and  _433
REMARK  174  A    between atoms: _432  and  _435
REMARK  175  A    between atoms: _435  and  _436
REMARK  176  A    between atoms: _441  and  _443
REMARK  177  A    between atoms: _443  and  _444
REMARK  178  A    between atoms: _443  and  _446
REMARK  179  A    between atoms: _446  and  _447
REMARK  180  A    between atoms: _450  and  _452
REMARK  181  A    between atoms: _452  and  _453
REMARK  182  A    between atoms: _452  and  _455
REMARK  183  A    between atoms: _455  and  _456
REMARK  184  A    between atoms: _461  and  _462
REMARK  185  A    between atoms: _464  and  _466
REMARK  186  A    between atoms: _466  and  _467
REMARK  187  A    between atoms: _466  and  _469
REMARK  188  A    between atoms: _469  and  _470
REMARK  189  A    between atoms: _470  and  _471
REMARK  190  A    between atoms: _474  and  _476
REMARK  191  A    between atoms: _476  and  _477
REMARK  192  A    between atoms: _476  and  _479
REMARK  193  A    between atoms: _479  and  _480
REMARK  194  A    between atoms: _483  and  _485
REMARK  195  A    between atoms: _485  and  _486
REMARK  196  A    between atoms: _488  and  _490
REMARK  197  A    between atoms: _490  and  _491
REMARK  198  A    between atoms: _493  and  _495
REMARK  199  A    between atoms: _495  and  _496
REMARK  200  A    between atoms: _495  and  _498
REMARK  201  A    between atoms: _498  and  _499
REMARK  202  A    between atoms: _499  and  _500
REMARK  203  A    between atoms: _505  and  _507
REMARK  204  A    between atoms: _507  and  _508
REMARK  205  A    between atoms: _511  and  _513
REMARK  206  A    between atoms: _513  and  _514
REMARK  207  A    between atoms: _513  and  _516
REMARK  208  A    between atoms: _516  and  _517
REMARK  209  A    between atoms: _520  and  _522
REMARK  210  A    between atoms: _522  and  _523
REMARK  211  A    between atoms: _522  and  _525
REMARK  212  A    between atoms: _525  and  _526
REMARK  213  A    between atoms: _526  and  _527
REMARK  214  A    between atoms: _532  and  _534
REMARK  215  A    between atoms: _534  and  _535
REMARK  216  A    between atoms: _534  and  _537
REMARK  217  A    between atoms: _537  and  _538
REMARK  218  A    between atoms: _541  and  _543
REMARK  219  A    between atoms: _543  and  _544
REMARK  220  A    between atoms: _543  and  _546
REMARK  221  A    between atoms: _546  and  _547
REMARK  222  A    between atoms: _547  and  _548
REMARK  223  A    between atoms: _548  and  _549
REMARK                            x       y       z     vdW  Elec       q    Type
REMARK                         _______ _______ _______ _____ _____    ______ ____
ROOT
ATOM      1  O   HOH     1      -8.596  13.131 -15.451  0.00  0.00    +0.000 OA
ENDROOT
TORSDOF 0
REMARK  Name = ../refined-set-2016/4r74/4r74_pocket.pdb
REMARK  223 active torsions:
REMARK  status: ('A' for Active; 'I' for Inactive)
REMARK    1  A    between atoms: _1  and  _3
REMARK    2  A    between atoms: _3  and  _4
REMARK    3  A    between atoms: _3  and  _6
REMARK    4  A    between atoms: _6  and  _7
REMARK    5  A    between atoms: _9  and  _11
REMARK    6  A    between atoms: _11  and  _12
REMARK    7  A    between atoms: _15  and  _17
REMARK    8  A    between atoms: _17  and  _18
REMARK    9  A    between atoms: _17  and  _20
REMARK   10  A    between atoms: _20  and  _21
REMARK   11  A    between atoms: _24  and  _26
REMARK   12  A    between atoms: _26  and  _27
REMARK   13  A    between atoms: _26  and  _29
REMARK   14  A    between atoms: _29  and  _30
REMARK   15  A    between atoms: _35  and  _37
REMARK   16  A    between atoms: _37  and  _38
REMARK   17  A    between atoms: _37  and  _40
REMARK   18  A    between atoms: _40  and  _41
REMARK   19  A    between atoms: _41  and  _42
REMARK   20  A    between atoms: _44  and  _46
REMARK   21  A    between atoms: _46  and  _47
REMARK   22  A    between atoms: _46  and  _49
REMARK   23  A    between atoms: _49  and  _50
REMARK   24  A    between atoms: _50  and  _51
REMARK   25  A    between atoms: _51  and  _52
REMARK   26  A    between atoms: _61  and  _63
REMARK   27  A    between atoms: _63  and  _64
REMARK   28  A    between atoms: _63  and  _66
REMARK   29  A    between atoms: _66  and  _67
REMARK   30  A    between atoms: _72  and  _74
REMARK   31  A    between atoms: _74  and  _75
REMARK   32  A    between atoms: _77  and  _79
REMARK   33  A    between atoms: _79  and  _80
REMARK   34  A    between atoms: _79  and  _82
REMARK   35  A    between atoms: _82  and  _83
REMARK   36  A    between atoms: _85  and  _87
REMARK   37  A    between atoms: _87  and  _88
REMARK   38  A    between atoms: _90  and  _92
REMARK   39  A    between atoms: _92  and  _93
REMARK   40  A    between atoms: _92  and  _95
REMARK   41  A    between atoms: _95  and  _96
REMARK   42  A    between atoms: _98  and  _100
REMARK   43  A    between atoms: _100  and  _101
REMARK   44  A    between atoms: _100  and  _103
REMARK   45  A    between atoms: _103  and  _104
REMARK   46  A    between atoms: _107  and  _109
REMARK   47  A    between atoms: _109  and  _110
REMARK   48  A    between atoms: _109  and  _112
REMARK   49  A    between atoms: _112  and  _113
REMARK   50  A    between atoms: _119  and  _121
REMARK   51  A    between atoms: _121  and  _122
REMARK   52  A    between atoms: _121  and  _124
REMARK   53  A    between atoms: _124  and  _125
REMARK   54  A    between atoms: _135  and  _137
REMARK   55  A    between atoms: _137  and  _138
REMARK   56  A    between atoms: _137  and  _140
REMARK   57  A    between atoms: _140  and  _141
REMARK   58  A    between atoms: _146  and  _147
REMARK   59  A    between atoms: _149  and  _151
REMARK   60  A    between atoms: _151  and  _152
REMARK   61  A    between atoms: _154  and  _156
REMARK   62  A    between atoms: _156  and  _157
REMARK   63  A    between atoms: _159  and  _161
REMARK   64  A    between atoms: _161  and  _162
REMARK   65  A    between atoms: _161  and  _164
REMARK   66  A    between atoms: _164  and  _165
REMARK   67  A    between atoms: _168  and  _170
REMARK   68  A    between atoms: _170  and  _171
REMARK   69  A    between atoms: _170  and  _173
REMARK   70  A    between atoms: _173  and  _174
REMARK   71  A    between atoms: _178  and  _179
REMARK   72  A    between atoms: _184  and  _186
REMARK   73  A    between atoms: _186  and  _187
REMARK   74  A    between atoms: _186  and  _189
REMARK   75  A    between atoms: _189  and  _190
REMARK   76  A    between atoms: _190  and  _191
REMARK   77  A    between atoms: _196  and  _198
REMARK   78  A    between atoms: _198  and  _199
REMARK   79  A    between atoms: _198  and  _201
REMARK   80  A    between atoms: _204  and  _206
REMARK   81  A    between atoms: _206  and  _207
REMARK   82  A    between atoms: _206  and  _209
REMARK   83  A    between atoms: _209  and  _210
REMARK   84  A    between atoms: _215  and  _216
REMARK   85  A    between atoms: _218  and  _220
REMARK   86  A    between atoms: _220  and  _221
REMARK   87  A    between atoms: _220  and  _223
REMARK   88  A    between atoms: _223  and  _224
REMARK   89  A    between atoms: _227  and  _229
REMARK   90  A    between atoms: _229  and  _230
REMARK   91  A    between atoms: _232  and  _234
REMARK   92  A    between atoms: _234  and  _235
REMARK   93  A    between atoms: _234  and  _237
REMARK   94  A    between atoms: _237  and  _238
REMARK   95  A    between atoms: _241  and  _243
REMARK   96  A    between atoms: _243  and  _244
REMARK   97  A    between atoms: _247  and  _249
REMARK   98  A    between atoms: _249  and  _250
REMARK   99  A    between atoms: _249  and  _252
REMARK  100  A    between atoms: _252  and  _253
REMARK  101  A    between atoms: _257  and  _258
REMARK  102  A    between atoms: _263  and  _265
REMARK  103  A    between atoms: _265  and  _266
REMARK  104  A    between atoms: _265  and  _268
REMARK  105  A    between atoms: _268  and  _269
REMARK  106  A    between atoms: _271  and  _273
REMARK  107  A    between atoms: _273  and  _274
REMARK  108  A    between atoms: _273  and  _276
REMARK  109  A    between atoms: _276  and  _277
REMARK  110  A    between atoms: _279  and  _281
REMARK  111  A    between atoms: _281  and  _282
REMARK  112  A    between atoms: _284  and  _286
REMARK  113  A    between atoms: _286  and  _287
REMARK  114  A    between atoms: _286  and  _289
REMARK  115  A    between atoms: _289  and  _290
REMARK  116  A    between atoms: _293  and  _295
REMARK  117  A    between atoms: _295  and  _296
REMARK  118  A    between atoms: _299  and  _301
REMARK  119  A    between atoms: _301  and  _302
REMARK  120  A    between atoms: _301  and  _304
REMARK  121  A    between atoms: _304  and  _305
REMARK  122  A    between atoms: _310  and  _311
REMARK  123  A    between atoms: _313  and  _315
REMARK  124  A    between atoms: _315  and  _316
REMARK  125  A    between atoms: _315  and  _318
REMARK  126  A    between atoms: _318  and  _319
REMARK  127  A    between atoms: _322  and  _324
REMARK  128  A    between atoms: _324  and  _325
REMARK  129  A    between atoms: _328  and  _330
REMARK  130  A    between atoms: _330  and  _331
REMARK  131  A    between atoms: _330  and  _333
REMARK  132  A    between atoms: _333  and  _334
REMARK  133  A    between atoms: _337  and  _339
REMARK  134  A    between atoms: _339  and  _340
REMARK  135  A    between atoms: _339  and  _342
REMARK  136  A    between atoms: _342  and  _343
REMARK  137  A    between atoms: _343  and  _344
REMARK  138  A    between atoms: _344  and  _345
REMARK  139  A    between atoms: _345  and  _346
REMARK  140  A    between atoms: _350  and  _352
REMARK  141  A    between atoms: _352  and  _353
REMARK  142  A    between atoms: _352  and  _355
REMARK  143  A    between atoms: _355  and  _356
REMARK  144  A    between atoms: _358  and  _360
REMARK  145  A    between atoms: _360  and  _361
REMARK  146  A    between atoms: _363  and  _365
REMARK  147  A    between atoms: _365  and  _366
REMARK  148  A    between atoms: _365  and  _368
REMARK  149  A    between atoms: _368  and  _369
REMARK  150  A    between atoms: _372  and  _374
REMARK  151  A    between atoms: _374  and  _375
REMARK  152  A    between atoms: _374  and  _377
REMARK  153  A    between atoms: _377  and  _378
REMARK  154  A    between atoms: _381  and  _383
REMARK  155  A    between atoms: _383  and  _384
REMARK  156  A    between atoms: _387  and  _389
REMARK  157  A    between atoms: _389  and  _390
REMARK  158  A    between atoms: _389  and  _392
REMARK  159  A    between atoms: _392  and  _393
REMARK  160  A    between atoms: _393  and  _394
REMARK  161  A    between atoms: _394  and  _395
REMARK  162  A    between atoms: _404  and  _406
REMARK  163  A    between atoms: _406  and  _407
REMARK  164  A    between atoms: _409  and  _411
REMARK  165  A    between atoms: _411  and  _412
REMARK  166  A    between atoms: _411  and  _414
REMARK  167  A    between atoms: _414  and  _415
REMARK  168  A    between atoms: _421  and  _423
REMARK  169  A    between atoms: _423  and  _424
REMARK  170  A    between atoms: _423  and  _426
REMARK  171  A    between atoms: _426  and  _427
REMARK  172  A    between atoms: _430  and  _432
REMARK  173  A    between atoms: _432  and  _433
REMARK  174  A    between atoms: _432  and  _435
REMARK  175  A    between atoms: _435  and  _436
REMARK  176  A    between atoms: _441  and  _443
REMARK  177  A    between atoms: _443  and  _444
REMARK  178  A    between atoms: _443  and  _446
REMARK  179  A    between atoms: _446  and  _447
REMARK  180  A    between atoms: _450  and  _452
REMARK  181  A    between atoms: _452  and  _453
REMARK  182  A    between atoms: _452  and  _455
REMARK  183  A    between atoms: _455  and  _456
REMARK  184  A    between atoms: _461  and  _462
REMARK  185  A    between atoms: _464  and  _466
REMARK  186  A    between atoms: _466  and  _467
REMARK  187  A    between atoms: _466  and  _469
REMARK  188  A    between atoms: _469  and  _470
REMARK  189  A    between atoms: _470  and  _471
REMARK  190  A    between atoms: _474  and  _476
REMARK  191  A    between atoms: _476  and  _477
REMARK  192  A    between atoms: _476  and  _479
REMARK  193  A    between atoms: _479  and  _480
REMARK  194  A    between atoms: _483  and  _485
REMARK  195  A    between atoms: _485  and  _486
REMARK  196  A    between atoms: _488  and  _490
REMARK  197  A    between atoms: _490  and  _491
REMARK  198  A    between atoms: _493  and  _495
REMARK  199  A    between atoms: _495  and  _496
REMARK  200  A    between atoms: _495  and  _498
REMARK  201  A    between atoms: _498  and  _499
REMARK  202  A    between atoms: _499  and  _500
REMARK  203  A    between atoms: _505  and  _507
REMARK  204  A    between atoms: _507  and  _508
REMARK  205  A    between atoms: _511  and  _513
REMARK  206  A    between atoms: _513  and  _514
REMARK  207  A    between atoms: _513  and  _516
REMARK  208  A    between atoms: _516  and  _517
REMARK  209  A    between atoms: _520  and  _522
REMARK  210  A    between atoms: _522  and  _523
REMARK  211  A    between atoms: _522  and  _525
REMARK  212  A    between atoms: _525  and  _526
REMARK  213  A    between atoms: _526  and  _527
REMARK  214  A    between atoms: _532  and  _534
REMARK  215  A    between atoms: _534  and  _535
REMARK  216  A    between atoms: _534  and  _537
REMARK  217  A    between atoms: _537  and  _538
REMARK  218  A    between atoms: _541  and  _543
REMARK  219  A    between atoms: _543  and  _544
REMARK  220  A    between atoms: _543  and  _546
REMARK  221  A    between atoms: _546  and  _547
REMARK  222  A    between atoms: _547  and  _548
REMARK  223  A    between atoms: _548  and  _549
REMARK                            x       y       z     vdW  Elec       q    Type
REMARK                         _______ _______ _______ _____ _____    ______ ____
ROOT
ATOM      1  O   HOH     1     -12.261  32.121  -8.636  0.00  0.00    +0.000 OA
ENDROOT
TORSDOF 0
REMARK  Name = ../refined-set-2016/4r74/4r74_pocket.pdb
REMARK  223 active torsions:
REMARK  status: ('A' for Active; 'I' for Inactive)
REMARK    1  A    between atoms: _1  and  _3
REMARK    2  A    between atoms: _3  and  _4
REMARK    3  A    between atoms: _3  and  _6
REMARK    4  A    between atoms: _6  and  _7
REMARK    5  A    between atoms: _9  and  _11
REMARK    6  A    between atoms: _11  and  _12
REMARK    7  A    between atoms: _15  and  _17
REMARK    8  A    between atoms: _17  and  _18
REMARK    9  A    between atoms: _17  and  _20
REMARK   10  A    between atoms: _20  and  _21
REMARK   11  A    between atoms: _24  and  _26
REMARK   12  A    between atoms: _26  and  _27
REMARK   13  A    between atoms: _26  and  _29
REMARK   14  A    between atoms: _29  and  _30
REMARK   15  A    between atoms: _35  and  _37
REMARK   16  A    between atoms: _37  and  _38
REMARK   17  A    between atoms: _37  and  _40
REMARK   18  A    between atoms: _40  and  _41
REMARK   19  A    between atoms: _41  and  _42
REMARK   20  A    between atoms: _44  and  _46
REMARK   21  A    between atoms: _46  and  _47
REMARK   22  A    between atoms: _46  and  _49
REMARK   23  A    between atoms: _49  and  _50
REMARK   24  A    between atoms: _50  and  _51
REMARK   25  A    between atoms: _51  and  _52
REMARK   26  A    between atoms: _61  and  _63
REMARK   27  A    between atoms: _63  and  _64
REMARK   28  A    between atoms: _63  and  _66
REMARK   29  A    between atoms: _66  and  _67
REMARK   30  A    between atoms: _72  and  _74
REMARK   31  A    between atoms: _74  and  _75
REMARK   32  A    between atoms: _77  and  _79
REMARK   33  A    between atoms: _79  and  _80
REMARK   34  A    between atoms: _79  and  _82
REMARK   35  A    between atoms: _82  and  _83
REMARK   36  A    between atoms: _85  and  _87
REMARK   37  A    between atoms: _87  and  _88
REMARK   38  A    between atoms: _90  and  _92
REMARK   39  A    between atoms: _92  and  _93
REMARK   40  A    between atoms: _92  and  _95
REMARK   41  A    between atoms: _95  and  _96
REMARK   42  A    between atoms: _98  and  _100
REMARK   43  A    between atoms: _100  and  _101
REMARK   44  A    between atoms: _100  and  _103
REMARK   45  A    between atoms: _103  and  _104
REMARK   46  A    between atoms: _107  and  _109
REMARK   47  A    between atoms: _109  and  _110
REMARK   48  A    between atoms: _109  and  _112
REMARK   49  A    between atoms: _112  and  _113
REMARK   50  A    between atoms: _119  and  _121
REMARK   51  A    between atoms: _121  and  _122
REMARK   52  A    between atoms: _121  and  _124
REMARK   53  A    between atoms: _124  and  _125
REMARK   54  A    between atoms: _135  and  _137
REMARK   55  A    between atoms: _137  and  _138
REMARK   56  A    between atoms: _137  and  _140
REMARK   57  A    between atoms: _140  and  _141
REMARK   58  A    between atoms: _146  and  _147
REMARK   59  A    between atoms: _149  and  _151
REMARK   60  A    between atoms: _151  and  _152
REMARK   61  A    between atoms: _154  and  _156
REMARK   62  A    between atoms: _156  and  _157
REMARK   63  A    between atoms: _159  and  _161
REMARK   64  A    between atoms: _161  and  _162
REMARK   65  A    between atoms: _161  and  _164
REMARK   66  A    between atoms: _164  and  _165
REMARK   67  A    between atoms: _168  and  _170
REMARK   68  A    between atoms: _170  and  _171
REMARK   69  A    between atoms: _170  and  _173
REMARK   70  A    between atoms: _173  and  _174
REMARK   71  A    between atoms: _178  and  _179
REMARK   72  A    between atoms: _184  and  _186
REMARK   73  A    between atoms: _186  and  _187
REMARK   74  A    between atoms: _186  and  _189
REMARK   75  A    between atoms: _189  and  _190
REMARK   76  A    between atoms: _190  and  _191
REMARK   77  A    between atoms: _196  and  _198
REMARK   78  A    between atoms: _198  and  _199
REMARK   79  A    between atoms: _198  and  _201
REMARK   80  A    between atoms: _204  and  _206
REMARK   81  A    between atoms: _206  and  _207
REMARK   82  A    between atoms: _206  and  _209
REMARK   83  A    between atoms: _209  and  _210
REMARK   84  A    between atoms: _215  and  _216
REMARK   85  A    between atoms: _218  and  _220
REMARK   86  A    between atoms: _220  and  _221
REMARK   87  A    between atoms: _220  and  _223
REMARK   88  A    between atoms: _223  and  _224
REMARK   89  A    between atoms: _227  and  _229
REMARK   90  A    between atoms: _229  and  _230
REMARK   91  A    between atoms: _232  and  _234
REMARK   92  A    between atoms: _234  and  _235
REMARK   93  A    between atoms: _234  and  _237
REMARK   94  A    between atoms: _237  and  _238
REMARK   95  A    between atoms: _241  and  _243
REMARK   96  A    between atoms: _243  and  _244
REMARK   97  A    between atoms: _247  and  _249
REMARK   98  A    between atoms: _249  and  _250
REMARK   99  A    between atoms: _249  and  _252
REMARK  100  A    between atoms: _252  and  _253
REMARK  101  A    between atoms: _257  and  _258
REMARK  102  A    between atoms: _263  and  _265
REMARK  103  A    between atoms: _265  and  _266
REMARK  104  A    between atoms: _265  and  _268
REMARK  105  A    between atoms: _268  and  _269
REMARK  106  A    between atoms: _271  and  _273
REMARK  107  A    between atoms: _273  and  _274
REMARK  108  A    between atoms: _273  and  _276
REMARK  109  A    between atoms: _276  and  _277
REMARK  110  A    between atoms: _279  and  _281
REMARK  111  A    between atoms: _281  and  _282
REMARK  112  A    between atoms: _284  and  _286
REMARK  113  A    between atoms: _286  and  _287
REMARK  114  A    between atoms: _286  and  _289
REMARK  115  A    between atoms: _289  and  _290
REMARK  116  A    between atoms: _293  and  _295
REMARK  117  A    between atoms: _295  and  _296
REMARK  118  A    between atoms: _299  and  _301
REMARK  119  A    between atoms: _301  and  _302
REMARK  120  A    between atoms: _301  and  _304
REMARK  121  A    between atoms: _304  and  _305
REMARK  122  A    between atoms: _310  and  _311
REMARK  123  A    between atoms: _313  and  _315
REMARK  124  A    between atoms: _315  and  _316
REMARK  125  A    between atoms: _315  and  _318
REMARK  126  A    between atoms: _318  and  _319
REMARK  127  A    between atoms: _322  and  _324
REMARK  128  A    between atoms: _324  and  _325
REMARK  129  A    between atoms: _328  and  _330
REMARK  130  A    between atoms: _330  and  _331
REMARK  131  A    between atoms: _330  and  _333
REMARK  132  A    between atoms: _333  and  _334
REMARK  133  A    between atoms: _337  and  _339
REMARK  134  A    between atoms: _339  and  _340
REMARK  135  A    between atoms: _339  and  _342
REMARK  136  A    between atoms: _342  and  _343
REMARK  137  A    between atoms: _343  and  _344
REMARK  138  A    between atoms: _344  and  _345
REMARK  139  A    between atoms: _345  and  _346
REMARK  140  A    between atoms: _350  and  _352
REMARK  141  A    between atoms: _352  and  _353
REMARK  142  A    between atoms: _352  and  _355
REMARK  143  A    between atoms: _355  and  _356
REMARK  144  A    between atoms: _358  and  _360
REMARK  145  A    between atoms: _360  and  _361
REMARK  146  A    between atoms: _363  and  _365
REMARK  147  A    between atoms: _365  and  _366
REMARK  148  A    between atoms: _365  and  _368
REMARK  149  A    between atoms: _368  and  _369
REMARK  150  A    between atoms: _372  and  _374
REMARK  151  A    between atoms: _374  and  _375
REMARK  152  A    between atoms: _374  and  _377
REMARK  153  A    between atoms: _377  and  _378
REMARK  154  A    between atoms: _381  and  _383
REMARK  155  A    between atoms: _383  and  _384
REMARK  156  A    between atoms: _387  and  _389
REMARK  157  A    between atoms: _389  and  _390
REMARK  158  A    between atoms: _389  and  _392
REMARK  159  A    between atoms: _392  and  _393
REMARK  160  A    between atoms: _393  and  _394
REMARK  161  A    between atoms: _394  and  _395
REMARK  162  A    between atoms: _404  and  _406
REMARK  163  A    between atoms: _406  and  _407
REMARK  164  A    between atoms: _409  and  _411
REMARK  165  A    between atoms: _411  and  _412
REMARK  166  A    between atoms: _411  and  _414
REMARK  167  A    between atoms: _414  and  _415
REMARK  168  A    between atoms: _421  and  _423
REMARK  169  A    between atoms: _423  and  _424
REMARK  170  A    between atoms: _423  and  _426
REMARK  171  A    between atoms: _426  and  _427
REMARK  172  A    between atoms: _430  and  _432
REMARK  173  A    between atoms: _432  and  _433
REMARK  174  A    between atoms: _432  and  _435
REMARK  175  A    between atoms: _435  and  _436
REMARK  176  A    between atoms: _441  and  _443
REMARK  177  A    between atoms: _443  and  _444
REMARK  178  A    between atoms: _443  and  _446
REMARK  179  A    between atoms: _446  and  _447
REMARK  180  A    between atoms: _450  and  _452
REMARK  181  A    between atoms: _452  and  _453
REMARK  182  A    between atoms: _452  and  _455
REMARK  183  A    between atoms: _455  and  _456
REMARK  184  A    between atoms: _461  and  _462
REMARK  185  A    between atoms: _464  and  _466
REMARK  186  A    between atoms: _466  and  _467
REMARK  187  A    between atoms: _466  and  _469
REMARK  188  A    between atoms: _469  and  _470
REMARK  189  A    between atoms: _470  and  _471
REMARK  190  A    between atoms: _474  and  _476
REMARK  191  A    between atoms: _476  and  _477
REMARK  192  A    between atoms: _476  and  _479
REMARK  193  A    between atoms: _479  and  _480
REMARK  194  A    between atoms: _483  and  _485
REMARK  195  A    between atoms: _485  and  _486
REMARK  196  A    between atoms: _488  and  _490
REMARK  197  A    between atoms: _490  and  _491
REMARK  198  A    between atoms: _493  and  _495
REMARK  199  A    between atoms: _495  and  _496
REMARK  200  A    between atoms: _495  and  _498
REMARK  201  A    between atoms: _498  and  _499
REMARK  202  A    between atoms: _499  and  _500
REMARK  203  A    between atoms: _505  and  _507
REMARK  204  A    between atoms: _507  and  _508
REMARK  205  A    between atoms: _511  and  _513
REMARK  206  A    between atoms: _513  and  _514
REMARK  207  A    between atoms: _513  and  _516
REMARK  208  A    between atoms: _516  and  _517
REMARK  209  A    between atoms: _520  and  _522
REMARK  210  A    between atoms: _522  and  _523
REMARK  211  A    between atoms: _522  and  _525
REMARK  212  A    between atoms: _525  and  _526
REMARK  213  A    between atoms: _526  and  _527
REMARK  214  A    between atoms: _532  and  _534
REMARK  215  A    between atoms: _534  and  _535
REMARK  216  A    between atoms: _534  and  _537
REMARK  217  A    between atoms: _537  and  _538
REMARK  218  A    between atoms: _541  and  _543
REMARK  219  A    between atoms: _543  and  _544
REMARK  220  A    between atoms: _543  and  _546
REMARK  221  A    between atoms: _546  and  _547
REMARK  222  A    between atoms: _547  and  _548
REMARK  223  A    between atoms: _548  and  _549
REMARK                            x       y       z     vdW  Elec       q    Type
REMARK                         _______ _______ _______ _____ _____    ______ ____
ROOT
ATOM      1  O   HOH     1      -7.682  15.443  -4.745  0.00  0.00    +0.000 OA
ENDROOT
TORSDOF 0
REMARK  Name = ../refined-set-2016/4r74/4r74_pocket.pdb
REMARK  223 active torsions:
REMARK  status: ('A' for Active; 'I' for Inactive)
REMARK    1  A    between atoms: _1  and  _3
REMARK    2  A    between atoms: _3  and  _4
REMARK    3  A    between atoms: _3  and  _6
REMARK    4  A    between atoms: _6  and  _7
REMARK    5  A    between atoms: _9  and  _11
REMARK    6  A    between atoms: _11  and  _12
REMARK    7  A    between atoms: _15  and  _17
REMARK    8  A    between atoms: _17  and  _18
REMARK    9  A    between atoms: _17  and  _20
REMARK   10  A    between atoms: _20  and  _21
REMARK   11  A    between atoms: _24  and  _26
REMARK   12  A    between atoms: _26  and  _27
REMARK   13  A    between atoms: _26  and  _29
REMARK   14  A    between atoms: _29  and  _30
REMARK   15  A    between atoms: _35  and  _37
REMARK   16  A    between atoms: _37  and  _38
REMARK   17  A    between atoms: _37  and  _40
REMARK   18  A    between atoms: _40  and  _41
REMARK   19  A    between atoms: _41  and  _42
REMARK   20  A    between atoms: _44  and  _46
REMARK   21  A    between atoms: _46  and  _47
REMARK   22  A    between atoms: _46  and  _49
REMARK   23  A    between atoms: _49  and  _50
REMARK   24  A    between atoms: _50  and  _51
REMARK   25  A    between atoms: _51  and  _52
REMARK   26  A    between atoms: _61  and  _63
REMARK   27  A    between atoms: _63  and  _64
REMARK   28  A    between atoms: _63  and  _66
REMARK   29  A    between atoms: _66  and  _67
REMARK   30  A    between atoms: _72  and  _74
REMARK   31  A    between atoms: _74  and  _75
REMARK   32  A    between atoms: _77  and  _79
REMARK   33  A    between atoms: _79  and  _80
REMARK   34  A    between atoms: _79  and  _82
REMARK   35  A    between atoms: _82  and  _83
REMARK   36  A    between atoms: _85  and  _87
REMARK   37  A    between atoms: _87  and  _88
REMARK   38  A    between atoms: _90  and  _92
REMARK   39  A    between atoms: _92  and  _93
REMARK   40  A    between atoms: _92  and  _95
REMARK   41  A    between atoms: _95  and  _96
REMARK   42  A    between atoms: _98  and  _100
REMARK   43  A    between atoms: _100  and  _101
REMARK   44  A    between atoms: _100  and  _103
REMARK   45  A    between atoms: _103  and  _104
REMARK   46  A    between atoms: _107  and  _109
REMARK   47  A    between atoms: _109  and  _110
REMARK   48  A    between atoms: _109  and  _112
REMARK   49  A    between atoms: _112  and  _113
REMARK   50  A    between atoms: _119  and  _121
REMARK   51  A    between atoms: _121  and  _122
REMARK   52  A    between atoms: _121  and  _124
REMARK   53  A    between atoms: _124  and  _125
REMARK   54  A    between atoms: _135  and  _137
REMARK   55  A    between atoms: _137  and  _138
REMARK   56  A    between atoms: _137  and  _140
REMARK   57  A    between atoms: _140  and  _141
REMARK   58  A    between atoms: _146  and  _147
REMARK   59  A    between atoms: _149  and  _151
REMARK   60  A    between atoms: _151  and  _152
REMARK   61  A    between atoms: _154  and  _156
REMARK   62  A    between atoms: _156  and  _157
REMARK   63  A    between atoms: _159  and  _161
REMARK   64  A    between atoms: _161  and  _162
REMARK   65  A    between atoms: _161  and  _164
REMARK   66  A    between atoms: _164  and  _165
REMARK   67  A    between atoms: _168  and  _170
REMARK   68  A    between atoms: _170  and  _171
REMARK   69  A    between atoms: _170  and  _173
REMARK   70  A    between atoms: _173  and  _174
REMARK   71  A    between atoms: _178  and  _179
REMARK   72  A    between atoms: _184  and  _186
REMARK   73  A    between atoms: _186  and  _187
REMARK   74  A    between atoms: _186  and  _189
REMARK   75  A    between atoms: _189  and  _190
REMARK   76  A    between atoms: _190  and  _191
REMARK   77  A    between atoms: _196  and  _198
REMARK   78  A    between atoms: _198  and  _199
REMARK   79  A    between atoms: _198  and  _201
REMARK   80  A    between atoms: _204  and  _206
REMARK   81  A    between atoms: _206  and  _207
REMARK   82  A    between atoms: _206  and  _209
REMARK   83  A    between atoms: _209  and  _210
REMARK   84  A    between atoms: _215  and  _216
REMARK   85  A    between atoms: _218  and  _220
REMARK   86  A    between atoms: _220  and  _221
REMARK   87  A    between atoms: _220  and  _223
REMARK   88  A    between atoms: _223  and  _224
REMARK   89  A    between atoms: _227  and  _229
REMARK   90  A    between atoms: _229  and  _230
REMARK   91  A    between atoms: _232  and  _234
REMARK   92  A    between atoms: _234  and  _235
REMARK   93  A    between atoms: _234  and  _237
REMARK   94  A    between atoms: _237  and  _238
REMARK   95  A    between atoms: _241  and  _243
REMARK   96  A    between atoms: _243  and  _244
REMARK   97  A    between atoms: _247  and  _249
REMARK   98  A    between atoms: _249  and  _250
REMARK   99  A    between atoms: _249  and  _252
REMARK  100  A    between atoms: _252  and  _253
REMARK  101  A    between atoms: _257  and  _258
REMARK  102  A    between atoms: _263  and  _265
REMARK  103  A    between atoms: _265  and  _266
REMARK  104  A    between atoms: _265  and  _268
REMARK  105  A    between atoms: _268  and  _269
REMARK  106  A    between atoms: _271  and  _273
REMARK  107  A    between atoms: _273  and  _274
REMARK  108  A    between atoms: _273  and  _276
REMARK  109  A    between atoms: _276  and  _277
REMARK  110  A    between atoms: _279  and  _281
REMARK  111  A    between atoms: _281  and  _282
REMARK  112  A    between atoms: _284  and  _286
REMARK  113  A    between atoms: _286  and  _287
REMARK  114  A    between atoms: _286  and  _289
REMARK  115  A    between atoms: _289  and  _290
REMARK  116  A    between atoms: _293  and  _295
REMARK  117  A    between atoms: _295  and  _296
REMARK  118  A    between atoms: _299  and  _301
REMARK  119  A    between atoms: _301  and  _302
REMARK  120  A    between atoms: _301  and  _304
REMARK  121  A    between atoms: _304  and  _305
REMARK  122  A    between atoms: _310  and  _311
REMARK  123  A    between atoms: _313  and  _315
REMARK  124  A    between atoms: _315  and  _316
REMARK  125  A    between atoms: _315  and  _318
REMARK  126  A    between atoms: _318  and  _319
REMARK  127  A    between atoms: _322  and  _324
REMARK  128  A    between atoms: _324  and  _325
REMARK  129  A    between atoms: _328  and  _330
REMARK  130  A    between atoms: _330  and  _331
REMARK  131  A    between atoms: _330  and  _333
REMARK  132  A    between atoms: _333  and  _334
REMARK  133  A    between atoms: _337  and  _339
REMARK  134  A    between atoms: _339  and  _340
REMARK  135  A    between atoms: _339  and  _342
REMARK  136  A    between atoms: _342  and  _343
REMARK  137  A    between atoms: _343  and  _344
REMARK  138  A    between atoms: _344  and  _345
REMARK  139  A    between atoms: _345  and  _346
REMARK  140  A    between atoms: _350  and  _352
REMARK  141  A    between atoms: _352  and  _353
REMARK  142  A    between atoms: _352  and  _355
REMARK  143  A    between atoms: _355  and  _356
REMARK  144  A    between atoms: _358  and  _360
REMARK  145  A    between atoms: _360  and  _361
REMARK  146  A    between atoms: _363  and  _365
REMARK  147  A    between atoms: _365  and  _366
REMARK  148  A    between atoms: _365  and  _368
REMARK  149  A    between atoms: _368  and  _369
REMARK  150  A    between atoms: _372  and  _374
REMARK  151  A    between atoms: _374  and  _375
REMARK  152  A    between atoms: _374  and  _377
REMARK  153  A    between atoms: _377  and  _378
REMARK  154  A    between atoms: _381  and  _383
REMARK  155  A    between atoms: _383  and  _384
REMARK  156  A    between atoms: _387  and  _389
REMARK  157  A    between atoms: _389  and  _390
REMARK  158  A    between atoms: _389  and  _392
REMARK  159  A    between atoms: _392  and  _393
REMARK  160  A    between atoms: _393  and  _394
REMARK  161  A    between atoms: _394  and  _395
REMARK  162  A    between atoms: _404  and  _406
REMARK  163  A    between atoms: _406  and  _407
REMARK  164  A    between atoms: _409  and  _411
REMARK  165  A    between atoms: _411  and  _412
REMARK  166  A    between atoms: _411  and  _414
REMARK  167  A    between atoms: _414  and  _415
REMARK  168  A    between atoms: _421  and  _423
REMARK  169  A    between atoms: _423  and  _424
REMARK  170  A    between atoms: _423  and  _426
REMARK  171  A    between atoms: _426  and  _427
REMARK  172  A    between atoms: _430  and  _432
REMARK  173  A    between atoms: _432  and  _433
REMARK  174  A    between atoms: _432  and  _435
REMARK  175  A    between atoms: _435  and  _436
REMARK  176  A    between atoms: _441  and  _443
REMARK  177  A    between atoms: _443  and  _444
REMARK  178  A    between atoms: _443  and  _446
REMARK  179  A    between atoms: _446  and  _447
REMARK  180  A    between atoms: _450  and  _452
REMARK  181  A    between atoms: _452  and  _453
REMARK  182  A    between atoms: _452  and  _455
REMARK  183  A    between atoms: _455  and  _456
REMARK  184  A    between atoms: _461  and  _462
REMARK  185  A    between atoms: _464  and  _466
REMARK  186  A    between atoms: _466  and  _467
REMARK  187  A    between atoms: _466  and  _469
REMARK  188  A    between atoms: _469  and  _470
REMARK  189  A    between atoms: _470  and  _471
REMARK  190  A    between atoms: _474  and  _476
REMARK  191  A    between atoms: _476  and  _477
REMARK  192  A    between atoms: _476  and  _479
REMARK  193  A    between atoms: _479  and  _480
REMARK  194  A    between atoms: _483  and  _485
REMARK  195  A    between atoms: _485  and  _486
REMARK  196  A    between atoms: _488  and  _490
REMARK  197  A    between atoms: _490  and  _491
REMARK  198  A    between atoms: _493  and  _495
REMARK  199  A    between atoms: _495  and  _496
REMARK  200  A    between atoms: _495  and  _498
REMARK  201  A    between atoms: _498  and  _499
REMARK  202  A    between atoms: _499  and  _500
REMARK  203  A    between atoms: _505  and  _507
REMARK  204  A    between atoms: _507  and  _508
REMARK  205  A    between atoms: _511  and  _513
REMARK  206  A    between atoms: _513  and  _514
REMARK  207  A    between atoms: _513  and  _516
REMARK  208  A    between atoms: _516  and  _517
REMARK  209  A    between atoms: _520  and  _522
REMARK  210  A    between atoms: _522  and  _523
REMARK  211  A    between atoms: _522  and  _525
REMARK  212  A    between atoms: _525  and  _526
REMARK  213  A    between atoms: _526  and  _527
REMARK  214  A    between atoms: _532  and  _534
REMARK  215  A    between atoms: _534  and  _535
REMARK  216  A    between atoms: _534  and  _537
REMARK  217  A    between atoms: _537  and  _538
REMARK  218  A    between atoms: _541  and  _543
REMARK  219  A    between atoms: _543  and  _544
REMARK  220  A    between atoms: _543  and  _546
REMARK  221  A    between atoms: _546  and  _547
REMARK  222  A    between atoms: _547  and  _548
REMARK  223  A    between atoms: _548  and  _549
REMARK                            x       y       z     vdW  Elec       q    Type
REMARK                         _______ _______ _______ _____ _____    ______ ____
ROOT
ATOM      1  O   HOH     1     -15.864  23.193  -9.204  0.00  0.00    +0.000 OA
ENDROOT
TORSDOF 0
REMARK  Name = ../refined-set-2016/4r74/4r74_pocket.pdb
REMARK  223 active torsions:
REMARK  status: ('A' for Active; 'I' for Inactive)
REMARK    1  A    between atoms: _1  and  _3
REMARK    2  A    between atoms: _3  and  _4
REMARK    3  A    between atoms: _3  and  _6
REMARK    4  A    between atoms: _6  and  _7
REMARK    5  A    between atoms: _9  and  _11
REMARK    6  A    between atoms: _11  and  _12
REMARK    7  A    between atoms: _15  and  _17
REMARK    8  A    between atoms: _17  and  _18
REMARK    9  A    between atoms: _17  and  _20
REMARK   10  A    between atoms: _20  and  _21
REMARK   11  A    between atoms: _24  and  _26
REMARK   12  A    between atoms: _26  and  _27
REMARK   13  A    between atoms: _26  and  _29
REMARK   14  A    between atoms: _29  and  _30
REMARK   15  A    between atoms: _35  and  _37
REMARK   16  A    between atoms: _37  and  _38
REMARK   17  A    between atoms: _37  and  _40
REMARK   18  A    between atoms: _40  and  _41
REMARK   19  A    between atoms: _41  and  _42
REMARK   20  A    between atoms: _44  and  _46
REMARK   21  A    between atoms: _46  and  _47
REMARK   22  A    between atoms: _46  and  _49
REMARK   23  A    between atoms: _49  and  _50
REMARK   24  A    between atoms: _50  and  _51
REMARK   25  A    between atoms: _51  and  _52
REMARK   26  A    between atoms: _61  and  _63
REMARK   27  A    between atoms: _63  and  _64
REMARK   28  A    between atoms: _63  and  _66
REMARK   29  A    between atoms: _66  and  _67
REMARK   30  A    between atoms: _72  and  _74
REMARK   31  A    between atoms: _74  and  _75
REMARK   32  A    between atoms: _77  and  _79
REMARK   33  A    between atoms: _79  and  _80
REMARK   34  A    between atoms: _79  and  _82
REMARK   35  A    between atoms: _82  and  _83
REMARK   36  A    between atoms: _85  and  _87
REMARK   37  A    between atoms: _87  and  _88
REMARK   38  A    between atoms: _90  and  _92
REMARK   39  A    between atoms: _92  and  _93
REMARK   40  A    between atoms: _92  and  _95
REMARK   41  A    between atoms: _95  and  _96
REMARK   42  A    between atoms: _98  and  _100
REMARK   43  A    between atoms: _100  and  _101
REMARK   44  A    between atoms: _100  and  _103
REMARK   45  A    between atoms: _103  and  _104
REMARK   46  A    between atoms: _107  and  _109
REMARK   47  A    between atoms: _109  and  _110
REMARK   48  A    between atoms: _109  and  _112
REMARK   49  A    between atoms: _112  and  _113
REMARK   50  A    between atoms: _119  and  _121
REMARK   51  A    between atoms: _121  and  _122
REMARK   52  A    between atoms: _121  and  _124
REMARK   53  A    between atoms: _124  and  _125
REMARK   54  A    between atoms: _135  and  _137
REMARK   55  A    between atoms: _137  and  _138
REMARK   56  A    between atoms: _137  and  _140
REMARK   57  A    between atoms: _140  and  _141
REMARK   58  A    between atoms: _146  and  _147
REMARK   59  A    between atoms: _149  and  _151
REMARK   60  A    between atoms: _151  and  _152
REMARK   61  A    between atoms: _154  and  _156
REMARK   62  A    between atoms: _156  and  _157
REMARK   63  A    between atoms: _159  and  _161
REMARK   64  A    between atoms: _161  and  _162
REMARK   65  A    between atoms: _161  and  _164
REMARK   66  A    between atoms: _164  and  _165
REMARK   67  A    between atoms: _168  and  _170
REMARK   68  A    between atoms: _170  and  _171
REMARK   69  A    between atoms: _170  and  _173
REMARK   70  A    between atoms: _173  and  _174
REMARK   71  A    between atoms: _178  and  _179
REMARK   72  A    between atoms: _184  and  _186
REMARK   73  A    between atoms: _186  and  _187
REMARK   74  A    between atoms: _186  and  _189
REMARK   75  A    between atoms: _189  and  _190
REMARK   76  A    between atoms: _190  and  _191
REMARK   77  A    between atoms: _196  and  _198
REMARK   78  A    between atoms: _198  and  _199
REMARK   79  A    between atoms: _198  and  _201
REMARK   80  A    between atoms: _204  and  _206
REMARK   81  A    between atoms: _206  and  _207
REMARK   82  A    between atoms: _206  and  _209
REMARK   83  A    between atoms: _209  and  _210
REMARK   84  A    between atoms: _215  and  _216
REMARK   85  A    between atoms: _218  and  _220
REMARK   86  A    between atoms: _220  and  _221
REMARK   87  A    between atoms: _220  and  _223
REMARK   88  A    between atoms: _223  and  _224
REMARK   89  A    between atoms: _227  and  _229
REMARK   90  A    between atoms: _229  and  _230
REMARK   91  A    between atoms: _232  and  _234
REMARK   92  A    between atoms: _234  and  _235
REMARK   93  A    between atoms: _234  and  _237
REMARK   94  A    between atoms: _237  and  _238
REMARK   95  A    between atoms: _241  and  _243
REMARK   96  A    between atoms: _243  and  _244
REMARK   97  A    between atoms: _247  and  _249
REMARK   98  A    between atoms: _249  and  _250
REMARK   99  A    between atoms: _249  and  _252
REMARK  100  A    between atoms: _252  and  _253
REMARK  101  A    between atoms: _257  and  _258
REMARK  102  A    between atoms: _263  and  _265
REMARK  103  A    between atoms: _265  and  _266
REMARK  104  A    between atoms: _265  and  _268
REMARK  105  A    between atoms: _268  and  _269
REMARK  106  A    between atoms: _271  and  _273
REMARK  107  A    between atoms: _273  and  _274
REMARK  108  A    between atoms: _273  and  _276
REMARK  109  A    between atoms: _276  and  _277
REMARK  110  A    between atoms: _279  and  _281
REMARK  111  A    between atoms: _281  and  _282
REMARK  112  A    between atoms: _284  and  _286
REMARK  113  A    between atoms: _286  and  _287
REMARK  114  A    between atoms: _286  and  _289
REMARK  115  A    between atoms: _289  and  _290
REMARK  116  A    between atoms: _293  and  _295
REMARK  117  A    between atoms: _295  and  _296
REMARK  118  A    between atoms: _299  and  _301
REMARK  119  A    between atoms: _301  and  _302
REMARK  120  A    between atoms: _301  and  _304
REMARK  121  A    between atoms: _304  and  _305
REMARK  122  A    between atoms: _310  and  _311
REMARK  123  A    between atoms: _313  and  _315
REMARK  124  A    between atoms: _315  and  _316
REMARK  125  A    between atoms: _315  and  _318
REMARK  126  A    between atoms: _318  and  _319
REMARK  127  A    between atoms: _322  and  _324
REMARK  128  A    between atoms: _324  and  _325
REMARK  129  A    between atoms: _328  and  _330
REMARK  130  A    between atoms: _330  and  _331
REMARK  131  A    between atoms: _330  and  _333
REMARK  132  A    between atoms: _333  and  _334
REMARK  133  A    between atoms: _337  and  _339
REMARK  134  A    between atoms: _339  and  _340
REMARK  135  A    between atoms: _339  and  _342
REMARK  136  A    between atoms: _342  and  _343
REMARK  137  A    between atoms: _343  and  _344
REMARK  138  A    between atoms: _344  and  _345
REMARK  139  A    between atoms: _345  and  _346
REMARK  140  A    between atoms: _350  and  _352
REMARK  141  A    between atoms: _352  and  _353
REMARK  142  A    between atoms: _352  and  _355
REMARK  143  A    between atoms: _355  and  _356
REMARK  144  A    between atoms: _358  and  _360
REMARK  145  A    between atoms: _360  and  _361
REMARK  146  A    between atoms: _363  and  _365
REMARK  147  A    between atoms: _365  and  _366
REMARK  148  A    between atoms: _365  and  _368
REMARK  149  A    between atoms: _368  and  _369
REMARK  150  A    between atoms: _372  and  _374
REMARK  151  A    between atoms: _374  and  _375
REMARK  152  A    between atoms: _374  and  _377
REMARK  153  A    between atoms: _377  and  _378
REMARK  154  A    between atoms: _381  and  _383
REMARK  155  A    between atoms: _383  and  _384
REMARK  156  A    between atoms: _387  and  _389
REMARK  157  A    between atoms: _389  and  _390
REMARK  158  A    between atoms: _389  and  _392
REMARK  159  A    between atoms: _392  and  _393
REMARK  160  A    between atoms: _393  and  _394
REMARK  161  A    between atoms: _394  and  _395
REMARK  162  A    between atoms: _404  and  _406
REMARK  163  A    between atoms: _406  and  _407
REMARK  164  A    between atoms: _409  and  _411
REMARK  165  A    between atoms: _411  and  _412
REMARK  166  A    between atoms: _411  and  _414
REMARK  167  A    between atoms: _414  and  _415
REMARK  168  A    between atoms: _421  and  _423
REMARK  169  A    between atoms: _423  and  _424
REMARK  170  A    between atoms: _423  and  _426
REMARK  171  A    between atoms: _426  and  _427
REMARK  172  A    between atoms: _430  and  _432
REMARK  173  A    between atoms: _432  and  _433
REMARK  174  A    between atoms: _432  and  _435
REMARK  175  A    between atoms: _435  and  _436
REMARK  176  A    between atoms: _441  and  _443
REMARK  177  A    between atoms: _443  and  _444
REMARK  178  A    between atoms: _443  and  _446
REMARK  179  A    between atoms: _446  and  _447
REMARK  180  A    between atoms: _450  and  _452
REMARK  181  A    between atoms: _452  and  _453
REMARK  182  A    between atoms: _452  and  _455
REMARK  183  A    between atoms: _455  and  _456
REMARK  184  A    between atoms: _461  and  _462
REMARK  185  A    between atoms: _464  and  _466
REMARK  186  A    between atoms: _466  and  _467
REMARK  187  A    between atoms: _466  and  _469
REMARK  188  A    between atoms: _469  and  _470
REMARK  189  A    between atoms: _470  and  _471
REMARK  190  A    between atoms: _474  and  _476
REMARK  191  A    between atoms: _476  and  _477
REMARK  192  A    between atoms: _476  and  _479
REMARK  193  A    between atoms: _479  and  _480
REMARK  194  A    between atoms: _483  and  _485
REMARK  195  A    between atoms: _485  and  _486
REMARK  196  A    between atoms: _488  and  _490
REMARK  197  A    between atoms: _490  and  _491
REMARK  198  A    between atoms: _493  and  _495
REMARK  199  A    between atoms: _495  and  _496
REMARK  200  A    between atoms: _495  and  _498
REMARK  201  A    between atoms: _498  and  _499
REMARK  202  A    between atoms: _499  and  _500
REMARK  203  A    between atoms: _505  and  _507
REMARK  204  A    between atoms: _507  and  _508
REMARK  205  A    between atoms: _511  and  _513
REMARK  206  A    between atoms: _513  and  _514
REMARK  207  A    between atoms: _513  and  _516
REMARK  208  A    between atoms: _516  and  _517
REMARK  209  A    between atoms: _520  and  _522
REMARK  210  A    between atoms: _522  and  _523
REMARK  211  A    between atoms: _522  and  _525
REMARK  212  A    between atoms: _525  and  _526
REMARK  213  A    between atoms: _526  and  _527
REMARK  214  A    between atoms: _532  and  _534
REMARK  215  A    between atoms: _534  and  _535
REMARK  216  A    between atoms: _534  and  _537
REMARK  217  A    between atoms: _537  and  _538
REMARK  218  A    between atoms: _541  and  _543
REMARK  219  A    between atoms: _543  and  _544
REMARK  220  A    between atoms: _543  and  _546
REMARK  221  A    between atoms: _546  and  _547
REMARK  222  A    between atoms: _547  and  _548
REMARK  223  A    between atoms: _548  and  _549
REMARK                            x       y       z     vdW  Elec       q    Type
REMARK                         _______ _______ _______ _____ _____    ______ ____
ROOT
ATOM      1  O   HOH     1       0.224  22.637  -5.228  0.00  0.00    +0.000 OA
ENDROOT
TORSDOF 0
REMARK  Name = ../refined-set-2016/4r74/4r74_pocket.pdb
REMARK  223 active torsions:
REMARK  status: ('A' for Active; 'I' for Inactive)
REMARK    1  A    between atoms: _1  and  _3
REMARK    2  A    between atoms: _3  and  _4
REMARK    3  A    between atoms: _3  and  _6
REMARK    4  A    between atoms: _6  and  _7
REMARK    5  A    between atoms: _9  and  _11
REMARK    6  A    between atoms: _11  and  _12
REMARK    7  A    between atoms: _15  and  _17
REMARK    8  A    between atoms: _17  and  _18
REMARK    9  A    between atoms: _17  and  _20
REMARK   10  A    between atoms: _20  and  _21
REMARK   11  A    between atoms: _24  and  _26
REMARK   12  A    between atoms: _26  and  _27
REMARK   13  A    between atoms: _26  and  _29
REMARK   14  A    between atoms: _29  and  _30
REMARK   15  A    between atoms: _35  and  _37
REMARK   16  A    between atoms: _37  and  _38
REMARK   17  A    between atoms: _37  and  _40
REMARK   18  A    between atoms: _40  and  _41
REMARK   19  A    between atoms: _41  and  _42
REMARK   20  A    between atoms: _44  and  _46
REMARK   21  A    between atoms: _46  and  _47
REMARK   22  A    between atoms: _46  and  _49
REMARK   23  A    between atoms: _49  and  _50
REMARK   24  A    between atoms: _50  and  _51
REMARK   25  A    between atoms: _51  and  _52
REMARK   26  A    between atoms: _61  and  _63
REMARK   27  A    between atoms: _63  and  _64
REMARK   28  A    between atoms: _63  and  _66
REMARK   29  A    between atoms: _66  and  _67
REMARK   30  A    between atoms: _72  and  _74
REMARK   31  A    between atoms: _74  and  _75
REMARK   32  A    between atoms: _77  and  _79
REMARK   33  A    between atoms: _79  and  _80
REMARK   34  A    between atoms: _79  and  _82
REMARK   35  A    between atoms: _82  and  _83
REMARK   36  A    between atoms: _85  and  _87
REMARK   37  A    between atoms: _87  and  _88
REMARK   38  A    between atoms: _90  and  _92
REMARK   39  A    between atoms: _92  and  _93
REMARK   40  A    between atoms: _92  and  _95
REMARK   41  A    between atoms: _95  and  _96
REMARK   42  A    between atoms: _98  and  _100
REMARK   43  A    between atoms: _100  and  _101
REMARK   44  A    between atoms: _100  and  _103
REMARK   45  A    between atoms: _103  and  _104
REMARK   46  A    between atoms: _107  and  _109
REMARK   47  A    between atoms: _109  and  _110
REMARK   48  A    between atoms: _109  and  _112
REMARK   49  A    between atoms: _112  and  _113
REMARK   50  A    between atoms: _119  and  _121
REMARK   51  A    between atoms: _121  and  _122
REMARK   52  A    between atoms: _121  and  _124
REMARK   53  A    between atoms: _124  and  _125
REMARK   54  A    between atoms: _135  and  _137
REMARK   55  A    between atoms: _137  and  _138
REMARK   56  A    between atoms: _137  and  _140
REMARK   57  A    between atoms: _140  and  _141
REMARK   58  A    between atoms: _146  and  _147
REMARK   59  A    between atoms: _149  and  _151
REMARK   60  A    between atoms: _151  and  _152
REMARK   61  A    between atoms: _154  and  _156
REMARK   62  A    between atoms: _156  and  _157
REMARK   63  A    between atoms: _159  and  _161
REMARK   64  A    between atoms: _161  and  _162
REMARK   65  A    between atoms: _161  and  _164
REMARK   66  A    between atoms: _164  and  _165
REMARK   67  A    between atoms: _168  and  _170
REMARK   68  A    between atoms: _170  and  _171
REMARK   69  A    between atoms: _170  and  _173
REMARK   70  A    between atoms: _173  and  _174
REMARK   71  A    between atoms: _178  and  _179
REMARK   72  A    between atoms: _184  and  _186
REMARK   73  A    between atoms: _186  and  _187
REMARK   74  A    between atoms: _186  and  _189
REMARK   75  A    between atoms: _189  and  _190
REMARK   76  A    between atoms: _190  and  _191
REMARK   77  A    between atoms: _196  and  _198
REMARK   78  A    between atoms: _198  and  _199
REMARK   79  A    between atoms: _198  and  _201
REMARK   80  A    between atoms: _204  and  _206
REMARK   81  A    between atoms: _206  and  _207
REMARK   82  A    between atoms: _206  and  _209
REMARK   83  A    between atoms: _209  and  _210
REMARK   84  A    between atoms: _215  and  _216
REMARK   85  A    between atoms: _218  and  _220
REMARK   86  A    between atoms: _220  and  _221
REMARK   87  A    between atoms: _220  and  _223
REMARK   88  A    between atoms: _223  and  _224
REMARK   89  A    between atoms: _227  and  _229
REMARK   90  A    between atoms: _229  and  _230
REMARK   91  A    between atoms: _232  and  _234
REMARK   92  A    between atoms: _234  and  _235
REMARK   93  A    between atoms: _234  and  _237
REMARK   94  A    between atoms: _237  and  _238
REMARK   95  A    between atoms: _241  and  _243
REMARK   96  A    between atoms: _243  and  _244
REMARK   97  A    between atoms: _247  and  _249
REMARK   98  A    between atoms: _249  and  _250
REMARK   99  A    between atoms: _249  and  _252
REMARK  100  A    between atoms: _252  and  _253
REMARK  101  A    between atoms: _257  and  _258
REMARK  102  A    between atoms: _263  and  _265
REMARK  103  A    between atoms: _265  and  _266
REMARK  104  A    between atoms: _265  and  _268
REMARK  105  A    between atoms: _268  and  _269
REMARK  106  A    between atoms: _271  and  _273
REMARK  107  A    between atoms: _273  and  _274
REMARK  108  A    between atoms: _273  and  _276
REMARK  109  A    between atoms: _276  and  _277
REMARK  110  A    between atoms: _279  and  _281
REMARK  111  A    between atoms: _281  and  _282
REMARK  112  A    between atoms: _284  and  _286
REMARK  113  A    between atoms: _286  and  _287
REMARK  114  A    between atoms: _286  and  _289
REMARK  115  A    between atoms: _289  and  _290
REMARK  116  A    between atoms: _293  and  _295
REMARK  117  A    between atoms: _295  and  _296
REMARK  118  A    between atoms: _299  and  _301
REMARK  119  A    between atoms: _301  and  _302
REMARK  120  A    between atoms: _301  and  _304
REMARK  121  A    between atoms: _304  and  _305
REMARK  122  A    between atoms: _310  and  _311
REMARK  123  A    between atoms: _313  and  _315
REMARK  124  A    between atoms: _315  and  _316
REMARK  125  A    between atoms: _315  and  _318
REMARK  126  A    between atoms: _318  and  _319
REMARK  127  A    between atoms: _322  and  _324
REMARK  128  A    between atoms: _324  and  _325
REMARK  129  A    between atoms: _328  and  _330
REMARK  130  A    between atoms: _330  and  _331
REMARK  131  A    between atoms: _330  and  _333
REMARK  132  A    between atoms: _333  and  _334
REMARK  133  A    between atoms: _337  and  _339
REMARK  134  A    between atoms: _339  and  _340
REMARK  135  A    between atoms: _339  and  _342
REMARK  136  A    between atoms: _342  and  _343
REMARK  137  A    between atoms: _343  and  _344
REMARK  138  A    between atoms: _344  and  _345
REMARK  139  A    between atoms: _345  and  _346
REMARK  140  A    between atoms: _350  and  _352
REMARK  141  A    between atoms: _352  and  _353
REMARK  142  A    between atoms: _352  and  _355
REMARK  143  A    between atoms: _355  and  _356
REMARK  144  A    between atoms: _358  and  _360
REMARK  145  A    between atoms: _360  and  _361
REMARK  146  A    between atoms: _363  and  _365
REMARK  147  A    between atoms: _365  and  _366
REMARK  148  A    between atoms: _365  and  _368
REMARK  149  A    between atoms: _368  and  _369
REMARK  150  A    between atoms: _372  and  _374
REMARK  151  A    between atoms: _374  and  _375
REMARK  152  A    between atoms: _374  and  _377
REMARK  153  A    between atoms: _377  and  _378
REMARK  154  A    between atoms: _381  and  _383
REMARK  155  A    between atoms: _383  and  _384
REMARK  156  A    between atoms: _387  and  _389
REMARK  157  A    between atoms: _389  and  _390
REMARK  158  A    between atoms: _389  and  _392
REMARK  159  A    between atoms: _392  and  _393
REMARK  160  A    between atoms: _393  and  _394
REMARK  161  A    between atoms: _394  and  _395
REMARK  162  A    between atoms: _404  and  _406
REMARK  163  A    between atoms: _406  and  _407
REMARK  164  A    between atoms: _409  and  _411
REMARK  165  A    between atoms: _411  and  _412
REMARK  166  A    between atoms: _411  and  _414
REMARK  167  A    between atoms: _414  and  _415
REMARK  168  A    between atoms: _421  and  _423
REMARK  169  A    between atoms: _423  and  _424
REMARK  170  A    between atoms: _423  and  _426
REMARK  171  A    between atoms: _426  and  _427
REMARK  172  A    between atoms: _430  and  _432
REMARK  173  A    between atoms: _432  and  _433
REMARK  174  A    between atoms: _432  and  _435
REMARK  175  A    between atoms: _435  and  _436
REMARK  176  A    between atoms: _441  and  _443
REMARK  177  A    between atoms: _443  and  _444
REMARK  178  A    between atoms: _443  and  _446
REMARK  179  A    between atoms: _446  and  _447
REMARK  180  A    between atoms: _450  and  _452
REMARK  181  A    between atoms: _452  and  _453
REMARK  182  A    between atoms: _452  and  _455
REMARK  183  A    between atoms: _455  and  _456
REMARK  184  A    between atoms: _461  and  _462
REMARK  185  A    between atoms: _464  and  _466
REMARK  186  A    between atoms: _466  and  _467
REMARK  187  A    between atoms: _466  and  _469
REMARK  188  A    between atoms: _469  and  _470
REMARK  189  A    between atoms: _470  and  _471
REMARK  190  A    between atoms: _474  and  _476
REMARK  191  A    between atoms: _476  and  _477
REMARK  192  A    between atoms: _476  and  _479
REMARK  193  A    between atoms: _479  and  _480
REMARK  194  A    between atoms: _483  and  _485
REMARK  195  A    between atoms: _485  and  _486
REMARK  196  A    between atoms: _488  and  _490
REMARK  197  A    between atoms: _490  and  _491
REMARK  198  A    between atoms: _493  and  _495
REMARK  199  A    between atoms: _495  and  _496
REMARK  200  A    between atoms: _495  and  _498
REMARK  201  A    between atoms: _498  and  _499
REMARK  202  A    between atoms: _499  and  _500
REMARK  203  A    between atoms: _505  and  _507
REMARK  204  A    between atoms: _507  and  _508
REMARK  205  A    between atoms: _511  and  _513
REMARK  206  A    between atoms: _513  and  _514
REMARK  207  A    between atoms: _513  and  _516
REMARK  208  A    between atoms: _516  and  _517
REMARK  209  A    between atoms: _520  and  _522
REMARK  210  A    between atoms: _522  and  _523
REMARK  211  A    between atoms: _522  and  _525
REMARK  212  A    between atoms: _525  and  _526
REMARK  213  A    between atoms: _526  and  _527
REMARK  214  A    between atoms: _532  and  _534
REMARK  215  A    between atoms: _534  and  _535
REMARK  216  A    between atoms: _534  and  _537
REMARK  217  A    between atoms: _537  and  _538
REMARK  218  A    between atoms: _541  and  _543
REMARK  219  A    between atoms: _543  and  _544
REMARK  220  A    between atoms: _543  and  _546
REMARK  221  A    between atoms: _546  and  _547
REMARK  222  A    between atoms: _547  and  _548
REMARK  223  A    between atoms: _548  and  _549
REMARK                            x       y       z     vdW  Elec       q    Type
REMARK                         _______ _______ _______ _____ _____    ______ ____
ROOT
ATOM      1  O   HOH     1     -16.384  25.438  -7.336  0.00  0.00    +0.000 OA
ENDROOT
TORSDOF 0
REMARK  Name = ../refined-set-2016/4r74/4r74_pocket.pdb
REMARK  223 active torsions:
REMARK  status: ('A' for Active; 'I' for Inactive)
REMARK    1  A    between atoms: _1  and  _3
REMARK    2  A    between atoms: _3  and  _4
REMARK    3  A    between atoms: _3  and  _6
REMARK    4  A    between atoms: _6  and  _7
REMARK    5  A    between atoms: _9  and  _11
REMARK    6  A    between atoms: _11  and  _12
REMARK    7  A    between atoms: _15  and  _17
REMARK    8  A    between atoms: _17  and  _18
REMARK    9  A    between atoms: _17  and  _20
REMARK   10  A    between atoms: _20  and  _21
REMARK   11  A    between atoms: _24  and  _26
REMARK   12  A    between atoms: _26  and  _27
REMARK   13  A    between atoms: _26  and  _29
REMARK   14  A    between atoms: _29  and  _30
REMARK   15  A    between atoms: _35  and  _37
REMARK   16  A    between atoms: _37  and  _38
REMARK   17  A    between atoms: _37  and  _40
REMARK   18  A    between atoms: _40  and  _41
REMARK   19  A    between atoms: _41  and  _42
REMARK   20  A    between atoms: _44  and  _46
REMARK   21  A    between atoms: _46  and  _47
REMARK   22  A    between atoms: _46  and  _49
REMARK   23  A    between atoms: _49  and  _50
REMARK   24  A    between atoms: _50  and  _51
REMARK   25  A    between atoms: _51  and  _52
REMARK   26  A    between atoms: _61  and  _63
REMARK   27  A    between atoms: _63  and  _64
REMARK   28  A    between atoms: _63  and  _66
REMARK   29  A    between atoms: _66  and  _67
REMARK   30  A    between atoms: _72  and  _74
REMARK   31  A    between atoms: _74  and  _75
REMARK   32  A    between atoms: _77  and  _79
REMARK   33  A    between atoms: _79  and  _80
REMARK   34  A    between atoms: _79  and  _82
REMARK   35  A    between atoms: _82  and  _83
REMARK   36  A    between atoms: _85  and  _87
REMARK   37  A    between atoms: _87  and  _88
REMARK   38  A    between atoms: _90  and  _92
REMARK   39  A    between atoms: _92  and  _93
REMARK   40  A    between atoms: _92  and  _95
REMARK   41  A    between atoms: _95  and  _96
REMARK   42  A    between atoms: _98  and  _100
REMARK   43  A    between atoms: _100  and  _101
REMARK   44  A    between atoms: _100  and  _103
REMARK   45  A    between atoms: _103  and  _104
REMARK   46  A    between atoms: _107  and  _109
REMARK   47  A    between atoms: _109  and  _110
REMARK   48  A    between atoms: _109  and  _112
REMARK   49  A    between atoms: _112  and  _113
REMARK   50  A    between atoms: _119  and  _121
REMARK   51  A    between atoms: _121  and  _122
REMARK   52  A    between atoms: _121  and  _124
REMARK   53  A    between atoms: _124  and  _125
REMARK   54  A    between atoms: _135  and  _137
REMARK   55  A    between atoms: _137  and  _138
REMARK   56  A    between atoms: _137  and  _140
REMARK   57  A    between atoms: _140  and  _141
REMARK   58  A    between atoms: _146  and  _147
REMARK   59  A    between atoms: _149  and  _151
REMARK   60  A    between atoms: _151  and  _152
REMARK   61  A    between atoms: _154  and  _156
REMARK   62  A    between atoms: _156  and  _157
REMARK   63  A    between atoms: _159  and  _161
REMARK   64  A    between atoms: _161  and  _162
REMARK   65  A    between atoms: _161  and  _164
REMARK   66  A    between atoms: _164  and  _165
REMARK   67  A    between atoms: _168  and  _170
REMARK   68  A    between atoms: _170  and  _171
REMARK   69  A    between atoms: _170  and  _173
REMARK   70  A    between atoms: _173  and  _174
REMARK   71  A    between atoms: _178  and  _179
REMARK   72  A    between atoms: _184  and  _186
REMARK   73  A    between atoms: _186  and  _187
REMARK   74  A    between atoms: _186  and  _189
REMARK   75  A    between atoms: _189  and  _190
REMARK   76  A    between atoms: _190  and  _191
REMARK   77  A    between atoms: _196  and  _198
REMARK   78  A    between atoms: _198  and  _199
REMARK   79  A    between atoms: _198  and  _201
REMARK   80  A    between atoms: _204  and  _206
REMARK   81  A    between atoms: _206  and  _207
REMARK   82  A    between atoms: _206  and  _209
REMARK   83  A    between atoms: _209  and  _210
REMARK   84  A    between atoms: _215  and  _216
REMARK   85  A    between atoms: _218  and  _220
REMARK   86  A    between atoms: _220  and  _221
REMARK   87  A    between atoms: _220  and  _223
REMARK   88  A    between atoms: _223  and  _224
REMARK   89  A    between atoms: _227  and  _229
REMARK   90  A    between atoms: _229  and  _230
REMARK   91  A    between atoms: _232  and  _234
REMARK   92  A    between atoms: _234  and  _235
REMARK   93  A    between atoms: _234  and  _237
REMARK   94  A    between atoms: _237  and  _238
REMARK   95  A    between atoms: _241  and  _243
REMARK   96  A    between atoms: _243  and  _244
REMARK   97  A    between atoms: _247  and  _249
REMARK   98  A    between atoms: _249  and  _250
REMARK   99  A    between atoms: _249  and  _252
REMARK  100  A    between atoms: _252  and  _253
REMARK  101  A    between atoms: _257  and  _258
REMARK  102  A    between atoms: _263  and  _265
REMARK  103  A    between atoms: _265  and  _266
REMARK  104  A    between atoms: _265  and  _268
REMARK  105  A    between atoms: _268  and  _269
REMARK  106  A    between atoms: _271  and  _273
REMARK  107  A    between atoms: _273  and  _274
REMARK  108  A    between atoms: _273  and  _276
REMARK  109  A    between atoms: _276  and  _277
REMARK  110  A    between atoms: _279  and  _281
REMARK  111  A    between atoms: _281  and  _282
REMARK  112  A    between atoms: _284  and  _286
REMARK  113  A    between atoms: _286  and  _287
REMARK  114  A    between atoms: _286  and  _289
REMARK  115  A    between atoms: _289  and  _290
REMARK  116  A    between atoms: _293  and  _295
REMARK  117  A    between atoms: _295  and  _296
REMARK  118  A    between atoms: _299  and  _301
REMARK  119  A    between atoms: _301  and  _302
REMARK  120  A    between atoms: _301  and  _304
REMARK  121  A    between atoms: _304  and  _305
REMARK  122  A    between atoms: _310  and  _311
REMARK  123  A    between atoms: _313  and  _315
REMARK  124  A    between atoms: _315  and  _316
REMARK  125  A    between atoms: _315  and  _318
REMARK  126  A    between atoms: _318  and  _319
REMARK  127  A    between atoms: _322  and  _324
REMARK  128  A    between atoms: _324  and  _325
REMARK  129  A    between atoms: _328  and  _330
REMARK  130  A    between atoms: _330  and  _331
REMARK  131  A    between atoms: _330  and  _333
REMARK  132  A    between atoms: _333  and  _334
REMARK  133  A    between atoms: _337  and  _339
REMARK  134  A    between atoms: _339  and  _340
REMARK  135  A    between atoms: _339  and  _342
REMARK  136  A    between atoms: _342  and  _343
REMARK  137  A    between atoms: _343  and  _344
REMARK  138  A    between atoms: _344  and  _345
REMARK  139  A    between atoms: _345  and  _346
REMARK  140  A    between atoms: _350  and  _352
REMARK  141  A    between atoms: _352  and  _353
REMARK  142  A    between atoms: _352  and  _355
REMARK  143  A    between atoms: _355  and  _356
REMARK  144  A    between atoms: _358  and  _360
REMARK  145  A    between atoms: _360  and  _361
REMARK  146  A    between atoms: _363  and  _365
REMARK  147  A    between atoms: _365  and  _366
REMARK  148  A    between atoms: _365  and  _368
REMARK  149  A    between atoms: _368  and  _369
REMARK  150  A    between atoms: _372  and  _374
REMARK  151  A    between atoms: _374  and  _375
REMARK  152  A    between atoms: _374  and  _377
REMARK  153  A    between atoms: _377  and  _378
REMARK  154  A    between atoms: _381  and  _383
REMARK  155  A    between atoms: _383  and  _384
REMARK  156  A    between atoms: _387  and  _389
REMARK  157  A    between atoms: _389  and  _390
REMARK  158  A    between atoms: _389  and  _392
REMARK  159  A    between atoms: _392  and  _393
REMARK  160  A    between atoms: _393  and  _394
REMARK  161  A    between atoms: _394  and  _395
REMARK  162  A    between atoms: _404  and  _406
REMARK  163  A    between atoms: _406  and  _407
REMARK  164  A    between atoms: _409  and  _411
REMARK  165  A    between atoms: _411  and  _412
REMARK  166  A    between atoms: _411  and  _414
REMARK  167  A    between atoms: _414  and  _415
REMARK  168  A    between atoms: _421  and  _423
REMARK  169  A    between atoms: _423  and  _424
REMARK  170  A    between atoms: _423  and  _426
REMARK  171  A    between atoms: _426  and  _427
REMARK  172  A    between atoms: _430  and  _432
REMARK  173  A    between atoms: _432  and  _433
REMARK  174  A    between atoms: _432  and  _435
REMARK  175  A    between atoms: _435  and  _436
REMARK  176  A    between atoms: _441  and  _443
REMARK  177  A    between atoms: _443  and  _444
REMARK  178  A    between atoms: _443  and  _446
REMARK  179  A    between atoms: _446  and  _447
REMARK  180  A    between atoms: _450  and  _452
REMARK  181  A    between atoms: _452  and  _453
REMARK  182  A    between atoms: _452  and  _455
REMARK  183  A    between atoms: _455  and  _456
REMARK  184  A    between atoms: _461  and  _462
REMARK  185  A    between atoms: _464  and  _466
REMARK  186  A    between atoms: _466  and  _467
REMARK  187  A    between atoms: _466  and  _469
REMARK  188  A    between atoms: _469  and  _470
REMARK  189  A    between atoms: _470  and  _471
REMARK  190  A    between atoms: _474  and  _476
REMARK  191  A    between atoms: _476  and  _477
REMARK  192  A    between atoms: _476  and  _479
REMARK  193  A    between atoms: _479  and  _480
REMARK  194  A    between atoms: _483  and  _485
REMARK  195  A    between atoms: _485  and  _486
REMARK  196  A    between atoms: _488  and  _490
REMARK  197  A    between atoms: _490  and  _491
REMARK  198  A    between atoms: _493  and  _495
REMARK  199  A    between atoms: _495  and  _496
REMARK  200  A    between atoms: _495  and  _498
REMARK  201  A    between atoms: _498  and  _499
REMARK  202  A    between atoms: _499  and  _500
REMARK  203  A    between atoms: _505  and  _507
REMARK  204  A    between atoms: _507  and  _508
REMARK  205  A    between atoms: _511  and  _513
REMARK  206  A    between atoms: _513  and  _514
REMARK  207  A    between atoms: _513  and  _516
REMARK  208  A    between atoms: _516  and  _517
REMARK  209  A    between atoms: _520  and  _522
REMARK  210  A    between atoms: _522  and  _523
REMARK  211  A    between atoms: _522  and  _525
REMARK  212  A    between atoms: _525  and  _526
REMARK  213  A    between atoms: _526  and  _527
REMARK  214  A    between atoms: _532  and  _534
REMARK  215  A    between atoms: _534  and  _535
REMARK  216  A    between atoms: _534  and  _537
REMARK  217  A    between atoms: _537  and  _538
REMARK  218  A    between atoms: _541  and  _543
REMARK  219  A    between atoms: _543  and  _544
REMARK  220  A    between atoms: _543  and  _546
REMARK  221  A    between atoms: _546  and  _547
REMARK  222  A    between atoms: _547  and  _548
REMARK  223  A    between atoms: _548  and  _549
REMARK                            x       y       z     vdW  Elec       q    Type
REMARK                         _______ _______ _______ _____ _____    ______ ____
ROOT
ATOM      1  O   HOH     1      -4.274  17.136 -12.452  0.00  0.00    +0.000 OA
ENDROOT
TORSDOF 0
REMARK  Name = ../refined-set-2016/4r74/4r74_pocket.pdb
REMARK  223 active torsions:
REMARK  status: ('A' for Active; 'I' for Inactive)
REMARK    1  A    between atoms: _1  and  _3
REMARK    2  A    between atoms: _3  and  _4
REMARK    3  A    between atoms: _3  and  _6
REMARK    4  A    between atoms: _6  and  _7
REMARK    5  A    between atoms: _9  and  _11
REMARK    6  A    between atoms: _11  and  _12
REMARK    7  A    between atoms: _15  and  _17
REMARK    8  A    between atoms: _17  and  _18
REMARK    9  A    between atoms: _17  and  _20
REMARK   10  A    between atoms: _20  and  _21
REMARK   11  A    between atoms: _24  and  _26
REMARK   12  A    between atoms: _26  and  _27
REMARK   13  A    between atoms: _26  and  _29
REMARK   14  A    between atoms: _29  and  _30
REMARK   15  A    between atoms: _35  and  _37
REMARK   16  A    between atoms: _37  and  _38
REMARK   17  A    between atoms: _37  and  _40
REMARK   18  A    between atoms: _40  and  _41
REMARK   19  A    between atoms: _41  and  _42
REMARK   20  A    between atoms: _44  and  _46
REMARK   21  A    between atoms: _46  and  _47
REMARK   22  A    between atoms: _46  and  _49
REMARK   23  A    between atoms: _49  and  _50
REMARK   24  A    between atoms: _50  and  _51
REMARK   25  A    between atoms: _51  and  _52
REMARK   26  A    between atoms: _61  and  _63
REMARK   27  A    between atoms: _63  and  _64
REMARK   28  A    between atoms: _63  and  _66
REMARK   29  A    between atoms: _66  and  _67
REMARK   30  A    between atoms: _72  and  _74
REMARK   31  A    between atoms: _74  and  _75
REMARK   32  A    between atoms: _77  and  _79
REMARK   33  A    between atoms: _79  and  _80
REMARK   34  A    between atoms: _79  and  _82
REMARK   35  A    between atoms: _82  and  _83
REMARK   36  A    between atoms: _85  and  _87
REMARK   37  A    between atoms: _87  and  _88
REMARK   38  A    between atoms: _90  and  _92
REMARK   39  A    between atoms: _92  and  _93
REMARK   40  A    between atoms: _92  and  _95
REMARK   41  A    between atoms: _95  and  _96
REMARK   42  A    between atoms: _98  and  _100
REMARK   43  A    between atoms: _100  and  _101
REMARK   44  A    between atoms: _100  and  _103
REMARK   45  A    between atoms: _103  and  _104
REMARK   46  A    between atoms: _107  and  _109
REMARK   47  A    between atoms: _109  and  _110
REMARK   48  A    between atoms: _109  and  _112
REMARK   49  A    between atoms: _112  and  _113
REMARK   50  A    between atoms: _119  and  _121
REMARK   51  A    between atoms: _121  and  _122
REMARK   52  A    between atoms: _121  and  _124
REMARK   53  A    between atoms: _124  and  _125
REMARK   54  A    between atoms: _135  and  _137
REMARK   55  A    between atoms: _137  and  _138
REMARK   56  A    between atoms: _137  and  _140
REMARK   57  A    between atoms: _140  and  _141
REMARK   58  A    between atoms: _146  and  _147
REMARK   59  A    between atoms: _149  and  _151
REMARK   60  A    between atoms: _151  and  _152
REMARK   61  A    between atoms: _154  and  _156
REMARK   62  A    between atoms: _156  and  _157
REMARK   63  A    between atoms: _159  and  _161
REMARK   64  A    between atoms: _161  and  _162
REMARK   65  A    between atoms: _161  and  _164
REMARK   66  A    between atoms: _164  and  _165
REMARK   67  A    between atoms: _168  and  _170
REMARK   68  A    between atoms: _170  and  _171
REMARK   69  A    between atoms: _170  and  _173
REMARK   70  A    between atoms: _173  and  _174
REMARK   71  A    between atoms: _178  and  _179
REMARK   72  A    between atoms: _184  and  _186
REMARK   73  A    between atoms: _186  and  _187
REMARK   74  A    between atoms: _186  and  _189
REMARK   75  A    between atoms: _189  and  _190
REMARK   76  A    between atoms: _190  and  _191
REMARK   77  A    between atoms: _196  and  _198
REMARK   78  A    between atoms: _198  and  _199
REMARK   79  A    between atoms: _198  and  _201
REMARK   80  A    between atoms: _204  and  _206
REMARK   81  A    between atoms: _206  and  _207
REMARK   82  A    between atoms: _206  and  _209
REMARK   83  A    between atoms: _209  and  _210
REMARK   84  A    between atoms: _215  and  _216
REMARK   85  A    between atoms: _218  and  _220
REMARK   86  A    between atoms: _220  and  _221
REMARK   87  A    between atoms: _220  and  _223
REMARK   88  A    between atoms: _223  and  _224
REMARK   89  A    between atoms: _227  and  _229
REMARK   90  A    between atoms: _229  and  _230
REMARK   91  A    between atoms: _232  and  _234
REMARK   92  A    between atoms: _234  and  _235
REMARK   93  A    between atoms: _234  and  _237
REMARK   94  A    between atoms: _237  and  _238
REMARK   95  A    between atoms: _241  and  _243
REMARK   96  A    between atoms: _243  and  _244
REMARK   97  A    between atoms: _247  and  _249
REMARK   98  A    between atoms: _249  and  _250
REMARK   99  A    between atoms: _249  and  _252
REMARK  100  A    between atoms: _252  and  _253
REMARK  101  A    between atoms: _257  and  _258
REMARK  102  A    between atoms: _263  and  _265
REMARK  103  A    between atoms: _265  and  _266
REMARK  104  A    between atoms: _265  and  _268
REMARK  105  A    between atoms: _268  and  _269
REMARK  106  A    between atoms: _271  and  _273
REMARK  107  A    between atoms: _273  and  _274
REMARK  108  A    between atoms: _273  and  _276
REMARK  109  A    between atoms: _276  and  _277
REMARK  110  A    between atoms: _279  and  _281
REMARK  111  A    between atoms: _281  and  _282
REMARK  112  A    between atoms: _284  and  _286
REMARK  113  A    between atoms: _286  and  _287
REMARK  114  A    between atoms: _286  and  _289
REMARK  115  A    between atoms: _289  and  _290
REMARK  116  A    between atoms: _293  and  _295
REMARK  117  A    between atoms: _295  and  _296
REMARK  118  A    between atoms: _299  and  _301
REMARK  119  A    between atoms: _301  and  _302
REMARK  120  A    between atoms: _301  and  _304
REMARK  121  A    between atoms: _304  and  _305
REMARK  122  A    between atoms: _310  and  _311
REMARK  123  A    between atoms: _313  and  _315
REMARK  124  A    between atoms: _315  and  _316
REMARK  125  A    between atoms: _315  and  _318
REMARK  126  A    between atoms: _318  and  _319
REMARK  127  A    between atoms: _322  and  _324
REMARK  128  A    between atoms: _324  and  _325
REMARK  129  A    between atoms: _328  and  _330
REMARK  130  A    between atoms: _330  and  _331
REMARK  131  A    between atoms: _330  and  _333
REMARK  132  A    between atoms: _333  and  _334
REMARK  133  A    between atoms: _337  and  _339
REMARK  134  A    between atoms: _339  and  _340
REMARK  135  A    between atoms: _339  and  _342
REMARK  136  A    between atoms: _342  and  _343
REMARK  137  A    between atoms: _343  and  _344
REMARK  138  A    between atoms: _344  and  _345
REMARK  139  A    between atoms: _345  and  _346
REMARK  140  A    between atoms: _350  and  _352
REMARK  141  A    between atoms: _352  and  _353
REMARK  142  A    between atoms: _352  and  _355
REMARK  143  A    between atoms: _355  and  _356
REMARK  144  A    between atoms: _358  and  _360
REMARK  145  A    between atoms: _360  and  _361
REMARK  146  A    between atoms: _363  and  _365
REMARK  147  A    between atoms: _365  and  _366
REMARK  148  A    between atoms: _365  and  _368
REMARK  149  A    between atoms: _368  and  _369
REMARK  150  A    between atoms: _372  and  _374
REMARK  151  A    between atoms: _374  and  _375
REMARK  152  A    between atoms: _374  and  _377
REMARK  153  A    between atoms: _377  and  _378
REMARK  154  A    between atoms: _381  and  _383
REMARK  155  A    between atoms: _383  and  _384
REMARK  156  A    between atoms: _387  and  _389
REMARK  157  A    between atoms: _389  and  _390
REMARK  158  A    between atoms: _389  and  _392
REMARK  159  A    between atoms: _392  and  _393
REMARK  160  A    between atoms: _393  and  _394
REMARK  161  A    between atoms: _394  and  _395
REMARK  162  A    between atoms: _404  and  _406
REMARK  163  A    between atoms: _406  and  _407
REMARK  164  A    between atoms: _409  and  _411
REMARK  165  A    between atoms: _411  and  _412
REMARK  166  A    between atoms: _411  and  _414
REMARK  167  A    between atoms: _414  and  _415
REMARK  168  A    between atoms: _421  and  _423
REMARK  169  A    between atoms: _423  and  _424
REMARK  170  A    between atoms: _423  and  _426
REMARK  171  A    between atoms: _426  and  _427
REMARK  172  A    between atoms: _430  and  _432
REMARK  173  A    between atoms: _432  and  _433
REMARK  174  A    between atoms: _432  and  _435
REMARK  175  A    between atoms: _435  and  _436
REMARK  176  A    between atoms: _441  and  _443
REMARK  177  A    between atoms: _443  and  _444
REMARK  178  A    between atoms: _443  and  _446
REMARK  179  A    between atoms: _446  and  _447
REMARK  180  A    between atoms: _450  and  _452
REMARK  181  A    between atoms: _452  and  _453
REMARK  182  A    between atoms: _452  and  _455
REMARK  183  A    between atoms: _455  and  _456
REMARK  184  A    between atoms: _461  and  _462
REMARK  185  A    between atoms: _464  and  _466
REMARK  186  A    between atoms: _466  and  _467
REMARK  187  A    between atoms: _466  and  _469
REMARK  188  A    between atoms: _469  and  _470
REMARK  189  A    between atoms: _470  and  _471
REMARK  190  A    between atoms: _474  and  _476
REMARK  191  A    between atoms: _476  and  _477
REMARK  192  A    between atoms: _476  and  _479
REMARK  193  A    between atoms: _479  and  _480
REMARK  194  A    between atoms: _483  and  _485
REMARK  195  A    between atoms: _485  and  _486
REMARK  196  A    between atoms: _488  and  _490
REMARK  197  A    between atoms: _490  and  _491
REMARK  198  A    between atoms: _493  and  _495
REMARK  199  A    between atoms: _495  and  _496
REMARK  200  A    between atoms: _495  and  _498
REMARK  201  A    between atoms: _498  and  _499
REMARK  202  A    between atoms: _499  and  _500
REMARK  203  A    between atoms: _505  and  _507
REMARK  204  A    between atoms: _507  and  _508
REMARK  205  A    between atoms: _511  and  _513
REMARK  206  A    between atoms: _513  and  _514
REMARK  207  A    between atoms: _513  and  _516
REMARK  208  A    between atoms: _516  and  _517
REMARK  209  A    between atoms: _520  and  _522
REMARK  210  A    between atoms: _522  and  _523
REMARK  211  A    between atoms: _522  and  _525
REMARK  212  A    between atoms: _525  and  _526
REMARK  213  A    between atoms: _526  and  _527
REMARK  214  A    between atoms: _532  and  _534
REMARK  215  A    between atoms: _534  and  _535
REMARK  216  A    between atoms: _534  and  _537
REMARK  217  A    between atoms: _537  and  _538
REMARK  218  A    between atoms: _541  and  _543
REMARK  219  A    between atoms: _543  and  _544
REMARK  220  A    between atoms: _543  and  _546
REMARK  221  A    between atoms: _546  and  _547
REMARK  222  A    between atoms: _547  and  _548
REMARK  223  A    between atoms: _548  and  _549
REMARK                            x       y       z     vdW  Elec       q    Type
REMARK                         _______ _______ _______ _____ _____    ______ ____
ROOT
ATOM      1  O   HOH     1     -12.355  25.901 -11.134  0.00  0.00    +0.000 OA
ENDROOT
TORSDOF 0
REMARK  Name = ../refined-set-2016/4r74/4r74_pocket.pdb
REMARK  223 active torsions:
REMARK  status: ('A' for Active; 'I' for Inactive)
REMARK    1  A    between atoms: _1  and  _3
REMARK    2  A    between atoms: _3  and  _4
REMARK    3  A    between atoms: _3  and  _6
REMARK    4  A    between atoms: _6  and  _7
REMARK    5  A    between atoms: _9  and  _11
REMARK    6  A    between atoms: _11  and  _12
REMARK    7  A    between atoms: _15  and  _17
REMARK    8  A    between atoms: _17  and  _18
REMARK    9  A    between atoms: _17  and  _20
REMARK   10  A    between atoms: _20  and  _21
REMARK   11  A    between atoms: _24  and  _26
REMARK   12  A    between atoms: _26  and  _27
REMARK   13  A    between atoms: _26  and  _29
REMARK   14  A    between atoms: _29  and  _30
REMARK   15  A    between atoms: _35  and  _37
REMARK   16  A    between atoms: _37  and  _38
REMARK   17  A    between atoms: _37  and  _40
REMARK   18  A    between atoms: _40  and  _41
REMARK   19  A    between atoms: _41  and  _42
REMARK   20  A    between atoms: _44  and  _46
REMARK   21  A    between atoms: _46  and  _47
REMARK   22  A    between atoms: _46  and  _49
REMARK   23  A    between atoms: _49  and  _50
REMARK   24  A    between atoms: _50  and  _51
REMARK   25  A    between atoms: _51  and  _52
REMARK   26  A    between atoms: _61  and  _63
REMARK   27  A    between atoms: _63  and  _64
REMARK   28  A    between atoms: _63  and  _66
REMARK   29  A    between atoms: _66  and  _67
REMARK   30  A    between atoms: _72  and  _74
REMARK   31  A    between atoms: _74  and  _75
REMARK   32  A    between atoms: _77  and  _79
REMARK   33  A    between atoms: _79  and  _80
REMARK   34  A    between atoms: _79  and  _82
REMARK   35  A    between atoms: _82  and  _83
REMARK   36  A    between atoms: _85  and  _87
REMARK   37  A    between atoms: _87  and  _88
REMARK   38  A    between atoms: _90  and  _92
REMARK   39  A    between atoms: _92  and  _93
REMARK   40  A    between atoms: _92  and  _95
REMARK   41  A    between atoms: _95  and  _96
REMARK   42  A    between atoms: _98  and  _100
REMARK   43  A    between atoms: _100  and  _101
REMARK   44  A    between atoms: _100  and  _103
REMARK   45  A    between atoms: _103  and  _104
REMARK   46  A    between atoms: _107  and  _109
REMARK   47  A    between atoms: _109  and  _110
REMARK   48  A    between atoms: _109  and  _112
REMARK   49  A    between atoms: _112  and  _113
REMARK   50  A    between atoms: _119  and  _121
REMARK   51  A    between atoms: _121  and  _122
REMARK   52  A    between atoms: _121  and  _124
REMARK   53  A    between atoms: _124  and  _125
REMARK   54  A    between atoms: _135  and  _137
REMARK   55  A    between atoms: _137  and  _138
REMARK   56  A    between atoms: _137  and  _140
REMARK   57  A    between atoms: _140  and  _141
REMARK   58  A    between atoms: _146  and  _147
REMARK   59  A    between atoms: _149  and  _151
REMARK   60  A    between atoms: _151  and  _152
REMARK   61  A    between atoms: _154  and  _156
REMARK   62  A    between atoms: _156  and  _157
REMARK   63  A    between atoms: _159  and  _161
REMARK   64  A    between atoms: _161  and  _162
REMARK   65  A    between atoms: _161  and  _164
REMARK   66  A    between atoms: _164  and  _165
REMARK   67  A    between atoms: _168  and  _170
REMARK   68  A    between atoms: _170  and  _171
REMARK   69  A    between atoms: _170  and  _173
REMARK   70  A    between atoms: _173  and  _174
REMARK   71  A    between atoms: _178  and  _179
REMARK   72  A    between atoms: _184  and  _186
REMARK   73  A    between atoms: _186  and  _187
REMARK   74  A    between atoms: _186  and  _189
REMARK   75  A    between atoms: _189  and  _190
REMARK   76  A    between atoms: _190  and  _191
REMARK   77  A    between atoms: _196  and  _198
REMARK   78  A    between atoms: _198  and  _199
REMARK   79  A    between atoms: _198  and  _201
REMARK   80  A    between atoms: _204  and  _206
REMARK   81  A    between atoms: _206  and  _207
REMARK   82  A    between atoms: _206  and  _209
REMARK   83  A    between atoms: _209  and  _210
REMARK   84  A    between atoms: _215  and  _216
REMARK   85  A    between atoms: _218  and  _220
REMARK   86  A    between atoms: _220  and  _221
REMARK   87  A    between atoms: _220  and  _223
REMARK   88  A    between atoms: _223  and  _224
REMARK   89  A    between atoms: _227  and  _229
REMARK   90  A    between atoms: _229  and  _230
REMARK   91  A    between atoms: _232  and  _234
REMARK   92  A    between atoms: _234  and  _235
REMARK   93  A    between atoms: _234  and  _237
REMARK   94  A    between atoms: _237  and  _238
REMARK   95  A    between atoms: _241  and  _243
REMARK   96  A    between atoms: _243  and  _244
REMARK   97  A    between atoms: _247  and  _249
REMARK   98  A    between atoms: _249  and  _250
REMARK   99  A    between atoms: _249  and  _252
REMARK  100  A    between atoms: _252  and  _253
REMARK  101  A    between atoms: _257  and  _258
REMARK  102  A    between atoms: _263  and  _265
REMARK  103  A    between atoms: _265  and  _266
REMARK  104  A    between atoms: _265  and  _268
REMARK  105  A    between atoms: _268  and  _269
REMARK  106  A    between atoms: _271  and  _273
REMARK  107  A    between atoms: _273  and  _274
REMARK  108  A    between atoms: _273  and  _276
REMARK  109  A    between atoms: _276  and  _277
REMARK  110  A    between atoms: _279  and  _281
REMARK  111  A    between atoms: _281  and  _282
REMARK  112  A    between atoms: _284  and  _286
REMARK  113  A    between atoms: _286  and  _287
REMARK  114  A    between atoms: _286  and  _289
REMARK  115  A    between atoms: _289  and  _290
REMARK  116  A    between atoms: _293  and  _295
REMARK  117  A    between atoms: _295  and  _296
REMARK  118  A    between atoms: _299  and  _301
REMARK  119  A    between atoms: _301  and  _302
REMARK  120  A    between atoms: _301  and  _304
REMARK  121  A    between atoms: _304  and  _305
REMARK  122  A    between atoms: _310  and  _311
REMARK  123  A    between atoms: _313  and  _315
REMARK  124  A    between atoms: _315  and  _316
REMARK  125  A    between atoms: _315  and  _318
REMARK  126  A    between atoms: _318  and  _319
REMARK  127  A    between atoms: _322  and  _324
REMARK  128  A    between atoms: _324  and  _325
REMARK  129  A    between atoms: _328  and  _330
REMARK  130  A    between atoms: _330  and  _331
REMARK  131  A    between atoms: _330  and  _333
REMARK  132  A    between atoms: _333  and  _334
REMARK  133  A    between atoms: _337  and  _339
REMARK  134  A    between atoms: _339  and  _340
REMARK  135  A    between atoms: _339  and  _342
REMARK  136  A    between atoms: _342  and  _343
REMARK  137  A    between atoms: _343  and  _344
REMARK  138  A    between atoms: _344  and  _345
REMARK  139  A    between atoms: _345  and  _346
REMARK  140  A    between atoms: _350  and  _352
REMARK  141  A    between atoms: _352  and  _353
REMARK  142  A    between atoms: _352  and  _355
REMARK  143  A    between atoms: _355  and  _356
REMARK  144  A    between atoms: _358  and  _360
REMARK  145  A    between atoms: _360  and  _361
REMARK  146  A    between atoms: _363  and  _365
REMARK  147  A    between atoms: _365  and  _366
REMARK  148  A    between atoms: _365  and  _368
REMARK  149  A    between atoms: _368  and  _369
REMARK  150  A    between atoms: _372  and  _374
REMARK  151  A    between atoms: _374  and  _375
REMARK  152  A    between atoms: _374  and  _377
REMARK  153  A    between atoms: _377  and  _378
REMARK  154  A    between atoms: _381  and  _383
REMARK  155  A    between atoms: _383  and  _384
REMARK  156  A    between atoms: _387  and  _389
REMARK  157  A    between atoms: _389  and  _390
REMARK  158  A    between atoms: _389  and  _392
REMARK  159  A    between atoms: _392  and  _393
REMARK  160  A    between atoms: _393  and  _394
REMARK  161  A    between atoms: _394  and  _395
REMARK  162  A    between atoms: _404  and  _406
REMARK  163  A    between atoms: _406  and  _407
REMARK  164  A    between atoms: _409  and  _411
REMARK  165  A    between atoms: _411  and  _412
REMARK  166  A    between atoms: _411  and  _414
REMARK  167  A    between atoms: _414  and  _415
REMARK  168  A    between atoms: _421  and  _423
REMARK  169  A    between atoms: _423  and  _424
REMARK  170  A    between atoms: _423  and  _426
REMARK  171  A    between atoms: _426  and  _427
REMARK  172  A    between atoms: _430  and  _432
REMARK  173  A    between atoms: _432  and  _433
REMARK  174  A    between atoms: _432  and  _435
REMARK  175  A    between atoms: _435  and  _436
REMARK  176  A    between atoms: _441  and  _443
REMARK  177  A    between atoms: _443  and  _444
REMARK  178  A    between atoms: _443  and  _446
REMARK  179  A    between atoms: _446  and  _447
REMARK  180  A    between atoms: _450  and  _452
REMARK  181  A    between atoms: _452  and  _453
REMARK  182  A    between atoms: _452  and  _455
REMARK  183  A    between atoms: _455  and  _456
REMARK  184  A    between atoms: _461  and  _462
REMARK  185  A    between atoms: _464  and  _466
REMARK  186  A    between atoms: _466  and  _467
REMARK  187  A    between atoms: _466  and  _469
REMARK  188  A    between atoms: _469  and  _470
REMARK  189  A    between atoms: _470  and  _471
REMARK  190  A    between atoms: _474  and  _476
REMARK  191  A    between atoms: _476  and  _477
REMARK  192  A    between atoms: _476  and  _479
REMARK  193  A    between atoms: _479  and  _480
REMARK  194  A    between atoms: _483  and  _485
REMARK  195  A    between atoms: _485  and  _486
REMARK  196  A    between atoms: _488  and  _490
REMARK  197  A    between atoms: _490  and  _491
REMARK  198  A    between atoms: _493  and  _495
REMARK  199  A    between atoms: _495  and  _496
REMARK  200  A    between atoms: _495  and  _498
REMARK  201  A    between atoms: _498  and  _499
REMARK  202  A    between atoms: _499  and  _500
REMARK  203  A    between atoms: _505  and  _507
REMARK  204  A    between atoms: _507  and  _508
REMARK  205  A    between atoms: _511  and  _513
REMARK  206  A    between atoms: _513  and  _514
REMARK  207  A    between atoms: _513  and  _516
REMARK  208  A    between atoms: _516  and  _517
REMARK  209  A    between atoms: _520  and  _522
REMARK  210  A    between atoms: _522  and  _523
REMARK  211  A    between atoms: _522  and  _525
REMARK  212  A    between atoms: _525  and  _526
REMARK  213  A    between atoms: _526  and  _527
REMARK  214  A    between atoms: _532  and  _534
REMARK  215  A    between atoms: _534  and  _535
REMARK  216  A    between atoms: _534  and  _537
REMARK  217  A    between atoms: _537  and  _538
REMARK  218  A    between atoms: _541  and  _543
REMARK  219  A    between atoms: _543  and  _544
REMARK  220  A    between atoms: _543  and  _546
REMARK  221  A    between atoms: _546  and  _547
REMARK  222  A    between atoms: _547  and  _548
REMARK  223  A    between atoms: _548  and  _549
REMARK                            x       y       z     vdW  Elec       q    Type
REMARK                         _______ _______ _______ _____ _____    ______ ____
ROOT
ATOM      1  O   HOH     1     -15.765  21.782 -15.909  0.00  0.00    +0.000 OA
ENDROOT
TORSDOF 0
REMARK  Name = ../refined-set-2016/4r74/4r74_pocket.pdb
REMARK  223 active torsions:
REMARK  status: ('A' for Active; 'I' for Inactive)
REMARK    1  A    between atoms: _1  and  _3
REMARK    2  A    between atoms: _3  and  _4
REMARK    3  A    between atoms: _3  and  _6
REMARK    4  A    between atoms: _6  and  _7
REMARK    5  A    between atoms: _9  and  _11
REMARK    6  A    between atoms: _11  and  _12
REMARK    7  A    between atoms: _15  and  _17
REMARK    8  A    between atoms: _17  and  _18
REMARK    9  A    between atoms: _17  and  _20
REMARK   10  A    between atoms: _20  and  _21
REMARK   11  A    between atoms: _24  and  _26
REMARK   12  A    between atoms: _26  and  _27
REMARK   13  A    between atoms: _26  and  _29
REMARK   14  A    between atoms: _29  and  _30
REMARK   15  A    between atoms: _35  and  _37
REMARK   16  A    between atoms: _37  and  _38
REMARK   17  A    between atoms: _37  and  _40
REMARK   18  A    between atoms: _40  and  _41
REMARK   19  A    between atoms: _41  and  _42
REMARK   20  A    between atoms: _44  and  _46
REMARK   21  A    between atoms: _46  and  _47
REMARK   22  A    between atoms: _46  and  _49
REMARK   23  A    between atoms: _49  and  _50
REMARK   24  A    between atoms: _50  and  _51
REMARK   25  A    between atoms: _51  and  _52
REMARK   26  A    between atoms: _61  and  _63
REMARK   27  A    between atoms: _63  and  _64
REMARK   28  A    between atoms: _63  and  _66
REMARK   29  A    between atoms: _66  and  _67
REMARK   30  A    between atoms: _72  and  _74
REMARK   31  A    between atoms: _74  and  _75
REMARK   32  A    between atoms: _77  and  _79
REMARK   33  A    between atoms: _79  and  _80
REMARK   34  A    between atoms: _79  and  _82
REMARK   35  A    between atoms: _82  and  _83
REMARK   36  A    between atoms: _85  and  _87
REMARK   37  A    between atoms: _87  and  _88
REMARK   38  A    between atoms: _90  and  _92
REMARK   39  A    between atoms: _92  and  _93
REMARK   40  A    between atoms: _92  and  _95
REMARK   41  A    between atoms: _95  and  _96
REMARK   42  A    between atoms: _98  and  _100
REMARK   43  A    between atoms: _100  and  _101
REMARK   44  A    between atoms: _100  and  _103
REMARK   45  A    between atoms: _103  and  _104
REMARK   46  A    between atoms: _107  and  _109
REMARK   47  A    between atoms: _109  and  _110
REMARK   48  A    between atoms: _109  and  _112
REMARK   49  A    between atoms: _112  and  _113
REMARK   50  A    between atoms: _119  and  _121
REMARK   51  A    between atoms: _121  and  _122
REMARK   52  A    between atoms: _121  and  _124
REMARK   53  A    between atoms: _124  and  _125
REMARK   54  A    between atoms: _135  and  _137
REMARK   55  A    between atoms: _137  and  _138
REMARK   56  A    between atoms: _137  and  _140
REMARK   57  A    between atoms: _140  and  _141
REMARK   58  A    between atoms: _146  and  _147
REMARK   59  A    between atoms: _149  and  _151
REMARK   60  A    between atoms: _151  and  _152
REMARK   61  A    between atoms: _154  and  _156
REMARK   62  A    between atoms: _156  and  _157
REMARK   63  A    between atoms: _159  and  _161
REMARK   64  A    between atoms: _161  and  _162
REMARK   65  A    between atoms: _161  and  _164
REMARK   66  A    between atoms: _164  and  _165
REMARK   67  A    between atoms: _168  and  _170
REMARK   68  A    between atoms: _170  and  _171
REMARK   69  A    between atoms: _170  and  _173
REMARK   70  A    between atoms: _173  and  _174
REMARK   71  A    between atoms: _178  and  _179
REMARK   72  A    between atoms: _184  and  _186
REMARK   73  A    between atoms: _186  and  _187
REMARK   74  A    between atoms: _186  and  _189
REMARK   75  A    between atoms: _189  and  _190
REMARK   76  A    between atoms: _190  and  _191
REMARK   77  A    between atoms: _196  and  _198
REMARK   78  A    between atoms: _198  and  _199
REMARK   79  A    between atoms: _198  and  _201
REMARK   80  A    between atoms: _204  and  _206
REMARK   81  A    between atoms: _206  and  _207
REMARK   82  A    between atoms: _206  and  _209
REMARK   83  A    between atoms: _209  and  _210
REMARK   84  A    between atoms: _215  and  _216
REMARK   85  A    between atoms: _218  and  _220
REMARK   86  A    between atoms: _220  and  _221
REMARK   87  A    between atoms: _220  and  _223
REMARK   88  A    between atoms: _223  and  _224
REMARK   89  A    between atoms: _227  and  _229
REMARK   90  A    between atoms: _229  and  _230
REMARK   91  A    between atoms: _232  and  _234
REMARK   92  A    between atoms: _234  and  _235
REMARK   93  A    between atoms: _234  and  _237
REMARK   94  A    between atoms: _237  and  _238
REMARK   95  A    between atoms: _241  and  _243
REMARK   96  A    between atoms: _243  and  _244
REMARK   97  A    between atoms: _247  and  _249
REMARK   98  A    between atoms: _249  and  _250
REMARK   99  A    between atoms: _249  and  _252
REMARK  100  A    between atoms: _252  and  _253
REMARK  101  A    between atoms: _257  and  _258
REMARK  102  A    between atoms: _263  and  _265
REMARK  103  A    between atoms: _265  and  _266
REMARK  104  A    between atoms: _265  and  _268
REMARK  105  A    between atoms: _268  and  _269
REMARK  106  A    between atoms: _271  and  _273
REMARK  107  A    between atoms: _273  and  _274
REMARK  108  A    between atoms: _273  and  _276
REMARK  109  A    between atoms: _276  and  _277
REMARK  110  A    between atoms: _279  and  _281
REMARK  111  A    between atoms: _281  and  _282
REMARK  112  A    between atoms: _284  and  _286
REMARK  113  A    between atoms: _286  and  _287
REMARK  114  A    between atoms: _286  and  _289
REMARK  115  A    between atoms: _289  and  _290
REMARK  116  A    between atoms: _293  and  _295
REMARK  117  A    between atoms: _295  and  _296
REMARK  118  A    between atoms: _299  and  _301
REMARK  119  A    between atoms: _301  and  _302
REMARK  120  A    between atoms: _301  and  _304
REMARK  121  A    between atoms: _304  and  _305
REMARK  122  A    between atoms: _310  and  _311
REMARK  123  A    between atoms: _313  and  _315
REMARK  124  A    between atoms: _315  and  _316
REMARK  125  A    between atoms: _315  and  _318
REMARK  126  A    between atoms: _318  and  _319
REMARK  127  A    between atoms: _322  and  _324
REMARK  128  A    between atoms: _324  and  _325
REMARK  129  A    between atoms: _328  and  _330
REMARK  130  A    between atoms: _330  and  _331
REMARK  131  A    between atoms: _330  and  _333
REMARK  132  A    between atoms: _333  and  _334
REMARK  133  A    between atoms: _337  and  _339
REMARK  134  A    between atoms: _339  and  _340
REMARK  135  A    between atoms: _339  and  _342
REMARK  136  A    between atoms: _342  and  _343
REMARK  137  A    between atoms: _343  and  _344
REMARK  138  A    between atoms: _344  and  _345
REMARK  139  A    between atoms: _345  and  _346
REMARK  140  A    between atoms: _350  and  _352
REMARK  141  A    between atoms: _352  and  _353
REMARK  142  A    between atoms: _352  and  _355
REMARK  143  A    between atoms: _355  and  _356
REMARK  144  A    between atoms: _358  and  _360
REMARK  145  A    between atoms: _360  and  _361
REMARK  146  A    between atoms: _363  and  _365
REMARK  147  A    between atoms: _365  and  _366
REMARK  148  A    between atoms: _365  and  _368
REMARK  149  A    between atoms: _368  and  _369
REMARK  150  A    between atoms: _372  and  _374
REMARK  151  A    between atoms: _374  and  _375
REMARK  152  A    between atoms: _374  and  _377
REMARK  153  A    between atoms: _377  and  _378
REMARK  154  A    between atoms: _381  and  _383
REMARK  155  A    between atoms: _383  and  _384
REMARK  156  A    between atoms: _387  and  _389
REMARK  157  A    between atoms: _389  and  _390
REMARK  158  A    between atoms: _389  and  _392
REMARK  159  A    between atoms: _392  and  _393
REMARK  160  A    between atoms: _393  and  _394
REMARK  161  A    between atoms: _394  and  _395
REMARK  162  A    between atoms: _404  and  _406
REMARK  163  A    between atoms: _406  and  _407
REMARK  164  A    between atoms: _409  and  _411
REMARK  165  A    between atoms: _411  and  _412
REMARK  166  A    between atoms: _411  and  _414
REMARK  167  A    between atoms: _414  and  _415
REMARK  168  A    between atoms: _421  and  _423
REMARK  169  A    between atoms: _423  and  _424
REMARK  170  A    between atoms: _423  and  _426
REMARK  171  A    between atoms: _426  and  _427
REMARK  172  A    between atoms: _430  and  _432
REMARK  173  A    between atoms: _432  and  _433
REMARK  174  A    between atoms: _432  and  _435
REMARK  175  A    between atoms: _435  and  _436
REMARK  176  A    between atoms: _441  and  _443
REMARK  177  A    between atoms: _443  and  _444
REMARK  178  A    between atoms: _443  and  _446
REMARK  179  A    between atoms: _446  and  _447
REMARK  180  A    between atoms: _450  and  _452
REMARK  181  A    between atoms: _452  and  _453
REMARK  182  A    between atoms: _452  and  _455
REMARK  183  A    between atoms: _455  and  _456
REMARK  184  A    between atoms: _461  and  _462
REMARK  185  A    between atoms: _464  and  _466
REMARK  186  A    between atoms: _466  and  _467
REMARK  187  A    between atoms: _466  and  _469
REMARK  188  A    between atoms: _469  and  _470
REMARK  189  A    between atoms: _470  and  _471
REMARK  190  A    between atoms: _474  and  _476
REMARK  191  A    between atoms: _476  and  _477
REMARK  192  A    between atoms: _476  and  _479
REMARK  193  A    between atoms: _479  and  _480
REMARK  194  A    between atoms: _483  and  _485
REMARK  195  A    between atoms: _485  and  _486
REMARK  196  A    between atoms: _488  and  _490
REMARK  197  A    between atoms: _490  and  _491
REMARK  198  A    between atoms: _493  and  _495
REMARK  199  A    between atoms: _495  and  _496
REMARK  200  A    between atoms: _495  and  _498
REMARK  201  A    between atoms: _498  and  _499
REMARK  202  A    between atoms: _499  and  _500
REMARK  203  A    between atoms: _505  and  _507
REMARK  204  A    between atoms: _507  and  _508
REMARK  205  A    between atoms: _511  and  _513
REMARK  206  A    between atoms: _513  and  _514
REMARK  207  A    between atoms: _513  and  _516
REMARK  208  A    between atoms: _516  and  _517
REMARK  209  A    between atoms: _520  and  _522
REMARK  210  A    between atoms: _522  and  _523
REMARK  211  A    between atoms: _522  and  _525
REMARK  212  A    between atoms: _525  and  _526
REMARK  213  A    between atoms: _526  and  _527
REMARK  214  A    between atoms: _532  and  _534
REMARK  215  A    between atoms: _534  and  _535
REMARK  216  A    between atoms: _534  and  _537
REMARK  217  A    between atoms: _537  and  _538
REMARK  218  A    between atoms: _541  and  _543
REMARK  219  A    between atoms: _543  and  _544
REMARK  220  A    between atoms: _543  and  _546
REMARK  221  A    between atoms: _546  and  _547
REMARK  222  A    between atoms: _547  and  _548
REMARK  223  A    between atoms: _548  and  _549
REMARK                            x       y       z     vdW  Elec       q    Type
REMARK                         _______ _______ _______ _____ _____    ______ ____
ROOT
ATOM      1  O   HOH     1     -17.239  20.832  -8.690  0.00  0.00    +0.000 OA
ENDROOT
TORSDOF 0
REMARK  Name = ../refined-set-2016/4r74/4r74_pocket.pdb
REMARK  223 active torsions:
REMARK  status: ('A' for Active; 'I' for Inactive)
REMARK    1  A    between atoms: _1  and  _3
REMARK    2  A    between atoms: _3  and  _4
REMARK    3  A    between atoms: _3  and  _6
REMARK    4  A    between atoms: _6  and  _7
REMARK    5  A    between atoms: _9  and  _11
REMARK    6  A    between atoms: _11  and  _12
REMARK    7  A    between atoms: _15  and  _17
REMARK    8  A    between atoms: _17  and  _18
REMARK    9  A    between atoms: _17  and  _20
REMARK   10  A    between atoms: _20  and  _21
REMARK   11  A    between atoms: _24  and  _26
REMARK   12  A    between atoms: _26  and  _27
REMARK   13  A    between atoms: _26  and  _29
REMARK   14  A    between atoms: _29  and  _30
REMARK   15  A    between atoms: _35  and  _37
REMARK   16  A    between atoms: _37  and  _38
REMARK   17  A    between atoms: _37  and  _40
REMARK   18  A    between atoms: _40  and  _41
REMARK   19  A    between atoms: _41  and  _42
REMARK   20  A    between atoms: _44  and  _46
REMARK   21  A    between atoms: _46  and  _47
REMARK   22  A    between atoms: _46  and  _49
REMARK   23  A    between atoms: _49  and  _50
REMARK   24  A    between atoms: _50  and  _51
REMARK   25  A    between atoms: _51  and  _52
REMARK   26  A    between atoms: _61  and  _63
REMARK   27  A    between atoms: _63  and  _64
REMARK   28  A    between atoms: _63  and  _66
REMARK   29  A    between atoms: _66  and  _67
REMARK   30  A    between atoms: _72  and  _74
REMARK   31  A    between atoms: _74  and  _75
REMARK   32  A    between atoms: _77  and  _79
REMARK   33  A    between atoms: _79  and  _80
REMARK   34  A    between atoms: _79  and  _82
REMARK   35  A    between atoms: _82  and  _83
REMARK   36  A    between atoms: _85  and  _87
REMARK   37  A    between atoms: _87  and  _88
REMARK   38  A    between atoms: _90  and  _92
REMARK   39  A    between atoms: _92  and  _93
REMARK   40  A    between atoms: _92  and  _95
REMARK   41  A    between atoms: _95  and  _96
REMARK   42  A    between atoms: _98  and  _100
REMARK   43  A    between atoms: _100  and  _101
REMARK   44  A    between atoms: _100  and  _103
REMARK   45  A    between atoms: _103  and  _104
REMARK   46  A    between atoms: _107  and  _109
REMARK   47  A    between atoms: _109  and  _110
REMARK   48  A    between atoms: _109  and  _112
REMARK   49  A    between atoms: _112  and  _113
REMARK   50  A    between atoms: _119  and  _121
REMARK   51  A    between atoms: _121  and  _122
REMARK   52  A    between atoms: _121  and  _124
REMARK   53  A    between atoms: _124  and  _125
REMARK   54  A    between atoms: _135  and  _137
REMARK   55  A    between atoms: _137  and  _138
REMARK   56  A    between atoms: _137  and  _140
REMARK   57  A    between atoms: _140  and  _141
REMARK   58  A    between atoms: _146  and  _147
REMARK   59  A    between atoms: _149  and  _151
REMARK   60  A    between atoms: _151  and  _152
REMARK   61  A    between atoms: _154  and  _156
REMARK   62  A    between atoms: _156  and  _157
REMARK   63  A    between atoms: _159  and  _161
REMARK   64  A    between atoms: _161  and  _162
REMARK   65  A    between atoms: _161  and  _164
REMARK   66  A    between atoms: _164  and  _165
REMARK   67  A    between atoms: _168  and  _170
REMARK   68  A    between atoms: _170  and  _171
REMARK   69  A    between atoms: _170  and  _173
REMARK   70  A    between atoms: _173  and  _174
REMARK   71  A    between atoms: _178  and  _179
REMARK   72  A    between atoms: _184  and  _186
REMARK   73  A    between atoms: _186  and  _187
REMARK   74  A    between atoms: _186  and  _189
REMARK   75  A    between atoms: _189  and  _190
REMARK   76  A    between atoms: _190  and  _191
REMARK   77  A    between atoms: _196  and  _198
REMARK   78  A    between atoms: _198  and  _199
REMARK   79  A    between atoms: _198  and  _201
REMARK   80  A    between atoms: _204  and  _206
REMARK   81  A    between atoms: _206  and  _207
REMARK   82  A    between atoms: _206  and  _209
REMARK   83  A    between atoms: _209  and  _210
REMARK   84  A    between atoms: _215  and  _216
REMARK   85  A    between atoms: _218  and  _220
REMARK   86  A    between atoms: _220  and  _221
REMARK   87  A    between atoms: _220  and  _223
REMARK   88  A    between atoms: _223  and  _224
REMARK   89  A    between atoms: _227  and  _229
REMARK   90  A    between atoms: _229  and  _230
REMARK   91  A    between atoms: _232  and  _234
REMARK   92  A    between atoms: _234  and  _235
REMARK   93  A    between atoms: _234  and  _237
REMARK   94  A    between atoms: _237  and  _238
REMARK   95  A    between atoms: _241  and  _243
REMARK   96  A    between atoms: _243  and  _244
REMARK   97  A    between atoms: _247  and  _249
REMARK   98  A    between atoms: _249  and  _250
REMARK   99  A    between atoms: _249  and  _252
REMARK  100  A    between atoms: _252  and  _253
REMARK  101  A    between atoms: _257  and  _258
REMARK  102  A    between atoms: _263  and  _265
REMARK  103  A    between atoms: _265  and  _266
REMARK  104  A    between atoms: _265  and  _268
REMARK  105  A    between atoms: _268  and  _269
REMARK  106  A    between atoms: _271  and  _273
REMARK  107  A    between atoms: _273  and  _274
REMARK  108  A    between atoms: _273  and  _276
REMARK  109  A    between atoms: _276  and  _277
REMARK  110  A    between atoms: _279  and  _281
REMARK  111  A    between atoms: _281  and  _282
REMARK  112  A    between atoms: _284  and  _286
REMARK  113  A    between atoms: _286  and  _287
REMARK  114  A    between atoms: _286  and  _289
REMARK  115  A    between atoms: _289  and  _290
REMARK  116  A    between atoms: _293  and  _295
REMARK  117  A    between atoms: _295  and  _296
REMARK  118  A    between atoms: _299  and  _301
REMARK  119  A    between atoms: _301  and  _302
REMARK  120  A    between atoms: _301  and  _304
REMARK  121  A    between atoms: _304  and  _305
REMARK  122  A    between atoms: _310  and  _311
REMARK  123  A    between atoms: _313  and  _315
REMARK  124  A    between atoms: _315  and  _316
REMARK  125  A    between atoms: _315  and  _318
REMARK  126  A    between atoms: _318  and  _319
REMARK  127  A    between atoms: _322  and  _324
REMARK  128  A    between atoms: _324  and  _325
REMARK  129  A    between atoms: _328  and  _330
REMARK  130  A    between atoms: _330  and  _331
REMARK  131  A    between atoms: _330  and  _333
REMARK  132  A    between atoms: _333  and  _334
REMARK  133  A    between atoms: _337  and  _339
REMARK  134  A    between atoms: _339  and  _340
REMARK  135  A    between atoms: _339  and  _342
REMARK  136  A    between atoms: _342  and  _343
REMARK  137  A    between atoms: _343  and  _344
REMARK  138  A    between atoms: _344  and  _345
REMARK  139  A    between atoms: _345  and  _346
REMARK  140  A    between atoms: _350  and  _352
REMARK  141  A    between atoms: _352  and  _353
REMARK  142  A    between atoms: _352  and  _355
REMARK  143  A    between atoms: _355  and  _356
REMARK  144  A    between atoms: _358  and  _360
REMARK  145  A    between atoms: _360  and  _361
REMARK  146  A    between atoms: _363  and  _365
REMARK  147  A    between atoms: _365  and  _366
REMARK  148  A    between atoms: _365  and  _368
REMARK  149  A    between atoms: _368  and  _369
REMARK  150  A    between atoms: _372  and  _374
REMARK  151  A    between atoms: _374  and  _375
REMARK  152  A    between atoms: _374  and  _377
REMARK  153  A    between atoms: _377  and  _378
REMARK  154  A    between atoms: _381  and  _383
REMARK  155  A    between atoms: _383  and  _384
REMARK  156  A    between atoms: _387  and  _389
REMARK  157  A    between atoms: _389  and  _390
REMARK  158  A    between atoms: _389  and  _392
REMARK  159  A    between atoms: _392  and  _393
REMARK  160  A    between atoms: _393  and  _394
REMARK  161  A    between atoms: _394  and  _395
REMARK  162  A    between atoms: _404  and  _406
REMARK  163  A    between atoms: _406  and  _407
REMARK  164  A    between atoms: _409  and  _411
REMARK  165  A    between atoms: _411  and  _412
REMARK  166  A    between atoms: _411  and  _414
REMARK  167  A    between atoms: _414  and  _415
REMARK  168  A    between atoms: _421  and  _423
REMARK  169  A    between atoms: _423  and  _424
REMARK  170  A    between atoms: _423  and  _426
REMARK  171  A    between atoms: _426  and  _427
REMARK  172  A    between atoms: _430  and  _432
REMARK  173  A    between atoms: _432  and  _433
REMARK  174  A    between atoms: _432  and  _435
REMARK  175  A    between atoms: _435  and  _436
REMARK  176  A    between atoms: _441  and  _443
REMARK  177  A    between atoms: _443  and  _444
REMARK  178  A    between atoms: _443  and  _446
REMARK  179  A    between atoms: _446  and  _447
REMARK  180  A    between atoms: _450  and  _452
REMARK  181  A    between atoms: _452  and  _453
REMARK  182  A    between atoms: _452  and  _455
REMARK  183  A    between atoms: _455  and  _456
REMARK  184  A    between atoms: _461  and  _462
REMARK  185  A    between atoms: _464  and  _466
REMARK  186  A    between atoms: _466  and  _467
REMARK  187  A    between atoms: _466  and  _469
REMARK  188  A    between atoms: _469  and  _470
REMARK  189  A    between atoms: _470  and  _471
REMARK  190  A    between atoms: _474  and  _476
REMARK  191  A    between atoms: _476  and  _477
REMARK  192  A    between atoms: _476  and  _479
REMARK  193  A    between atoms: _479  and  _480
REMARK  194  A    between atoms: _483  and  _485
REMARK  195  A    between atoms: _485  and  _486
REMARK  196  A    between atoms: _488  and  _490
REMARK  197  A    between atoms: _490  and  _491
REMARK  198  A    between atoms: _493  and  _495
REMARK  199  A    between atoms: _495  and  _496
REMARK  200  A    between atoms: _495  and  _498
REMARK  201  A    between atoms: _498  and  _499
REMARK  202  A    between atoms: _499  and  _500
REMARK  203  A    between atoms: _505  and  _507
REMARK  204  A    between atoms: _507  and  _508
REMARK  205  A    between atoms: _511  and  _513
REMARK  206  A    between atoms: _513  and  _514
REMARK  207  A    between atoms: _513  and  _516
REMARK  208  A    between atoms: _516  and  _517
REMARK  209  A    between atoms: _520  and  _522
REMARK  210  A    between atoms: _522  and  _523
REMARK  211  A    between atoms: _522  and  _525
REMARK  212  A    between atoms: _525  and  _526
REMARK  213  A    between atoms: _526  and  _527
REMARK  214  A    between atoms: _532  and  _534
REMARK  215  A    between atoms: _534  and  _535
REMARK  216  A    between atoms: _534  and  _537
REMARK  217  A    between atoms: _537  and  _538
REMARK  218  A    between atoms: _541  and  _543
REMARK  219  A    between atoms: _543  and  _544
REMARK  220  A    between atoms: _543  and  _546
REMARK  221  A    between atoms: _546  and  _547
REMARK  222  A    between atoms: _547  and  _548
REMARK  223  A    between atoms: _548  and  _549
REMARK                            x       y       z     vdW  Elec       q    Type
REMARK                         _______ _______ _______ _____ _____    ______ ____
ROOT
ATOM      1  O   HOH     1      -6.893  20.769 -13.149  0.00  0.00    +0.000 OA
ENDROOT
TORSDOF 0
REMARK  Name = ../refined-set-2016/4r74/4r74_pocket.pdb
REMARK  223 active torsions:
REMARK  status: ('A' for Active; 'I' for Inactive)
REMARK    1  A    between atoms: _1  and  _3
REMARK    2  A    between atoms: _3  and  _4
REMARK    3  A    between atoms: _3  and  _6
REMARK    4  A    between atoms: _6  and  _7
REMARK    5  A    between atoms: _9  and  _11
REMARK    6  A    between atoms: _11  and  _12
REMARK    7  A    between atoms: _15  and  _17
REMARK    8  A    between atoms: _17  and  _18
REMARK    9  A    between atoms: _17  and  _20
REMARK   10  A    between atoms: _20  and  _21
REMARK   11  A    between atoms: _24  and  _26
REMARK   12  A    between atoms: _26  and  _27
REMARK   13  A    between atoms: _26  and  _29
REMARK   14  A    between atoms: _29  and  _30
REMARK   15  A    between atoms: _35  and  _37
REMARK   16  A    between atoms: _37  and  _38
REMARK   17  A    between atoms: _37  and  _40
REMARK   18  A    between atoms: _40  and  _41
REMARK   19  A    between atoms: _41  and  _42
REMARK   20  A    between atoms: _44  and  _46
REMARK   21  A    between atoms: _46  and  _47
REMARK   22  A    between atoms: _46  and  _49
REMARK   23  A    between atoms: _49  and  _50
REMARK   24  A    between atoms: _50  and  _51
REMARK   25  A    between atoms: _51  and  _52
REMARK   26  A    between atoms: _61  and  _63
REMARK   27  A    between atoms: _63  and  _64
REMARK   28  A    between atoms: _63  and  _66
REMARK   29  A    between atoms: _66  and  _67
REMARK   30  A    between atoms: _72  and  _74
REMARK   31  A    between atoms: _74  and  _75
REMARK   32  A    between atoms: _77  and  _79
REMARK   33  A    between atoms: _79  and  _80
REMARK   34  A    between atoms: _79  and  _82
REMARK   35  A    between atoms: _82  and  _83
REMARK   36  A    between atoms: _85  and  _87
REMARK   37  A    between atoms: _87  and  _88
REMARK   38  A    between atoms: _90  and  _92
REMARK   39  A    between atoms: _92  and  _93
REMARK   40  A    between atoms: _92  and  _95
REMARK   41  A    between atoms: _95  and  _96
REMARK   42  A    between atoms: _98  and  _100
REMARK   43  A    between atoms: _100  and  _101
REMARK   44  A    between atoms: _100  and  _103
REMARK   45  A    between atoms: _103  and  _104
REMARK   46  A    between atoms: _107  and  _109
REMARK   47  A    between atoms: _109  and  _110
REMARK   48  A    between atoms: _109  and  _112
REMARK   49  A    between atoms: _112  and  _113
REMARK   50  A    between atoms: _119  and  _121
REMARK   51  A    between atoms: _121  and  _122
REMARK   52  A    between atoms: _121  and  _124
REMARK   53  A    between atoms: _124  and  _125
REMARK   54  A    between atoms: _135  and  _137
REMARK   55  A    between atoms: _137  and  _138
REMARK   56  A    between atoms: _137  and  _140
REMARK   57  A    between atoms: _140  and  _141
REMARK   58  A    between atoms: _146  and  _147
REMARK   59  A    between atoms: _149  and  _151
REMARK   60  A    between atoms: _151  and  _152
REMARK   61  A    between atoms: _154  and  _156
REMARK   62  A    between atoms: _156  and  _157
REMARK   63  A    between atoms: _159  and  _161
REMARK   64  A    between atoms: _161  and  _162
REMARK   65  A    between atoms: _161  and  _164
REMARK   66  A    between atoms: _164  and  _165
REMARK   67  A    between atoms: _168  and  _170
REMARK   68  A    between atoms: _170  and  _171
REMARK   69  A    between atoms: _170  and  _173
REMARK   70  A    between atoms: _173  and  _174
REMARK   71  A    between atoms: _178  and  _179
REMARK   72  A    between atoms: _184  and  _186
REMARK   73  A    between atoms: _186  and  _187
REMARK   74  A    between atoms: _186  and  _189
REMARK   75  A    between atoms: _189  and  _190
REMARK   76  A    between atoms: _190  and  _191
REMARK   77  A    between atoms: _196  and  _198
REMARK   78  A    between atoms: _198  and  _199
REMARK   79  A    between atoms: _198  and  _201
REMARK   80  A    between atoms: _204  and  _206
REMARK   81  A    between atoms: _206  and  _207
REMARK   82  A    between atoms: _206  and  _209
REMARK   83  A    between atoms: _209  and  _210
REMARK   84  A    between atoms: _215  and  _216
REMARK   85  A    between atoms: _218  and  _220
REMARK   86  A    between atoms: _220  and  _221
REMARK   87  A    between atoms: _220  and  _223
REMARK   88  A    between atoms: _223  and  _224
REMARK   89  A    between atoms: _227  and  _229
REMARK   90  A    between atoms: _229  and  _230
REMARK   91  A    between atoms: _232  and  _234
REMARK   92  A    between atoms: _234  and  _235
REMARK   93  A    between atoms: _234  and  _237
REMARK   94  A    between atoms: _237  and  _238
REMARK   95  A    between atoms: _241  and  _243
REMARK   96  A    between atoms: _243  and  _244
REMARK   97  A    between atoms: _247  and  _249
REMARK   98  A    between atoms: _249  and  _250
REMARK   99  A    between atoms: _249  and  _252
REMARK  100  A    between atoms: _252  and  _253
REMARK  101  A    between atoms: _257  and  _258
REMARK  102  A    between atoms: _263  and  _265
REMARK  103  A    between atoms: _265  and  _266
REMARK  104  A    between atoms: _265  and  _268
REMARK  105  A    between atoms: _268  and  _269
REMARK  106  A    between atoms: _271  and  _273
REMARK  107  A    between atoms: _273  and  _274
REMARK  108  A    between atoms: _273  and  _276
REMARK  109  A    between atoms: _276  and  _277
REMARK  110  A    between atoms: _279  and  _281
REMARK  111  A    between atoms: _281  and  _282
REMARK  112  A    between atoms: _284  and  _286
REMARK  113  A    between atoms: _286  and  _287
REMARK  114  A    between atoms: _286  and  _289
REMARK  115  A    between atoms: _289  and  _290
REMARK  116  A    between atoms: _293  and  _295
REMARK  117  A    between atoms: _295  and  _296
REMARK  118  A    between atoms: _299  and  _301
REMARK  119  A    between atoms: _301  and  _302
REMARK  120  A    between atoms: _301  and  _304
REMARK  121  A    between atoms: _304  and  _305
REMARK  122  A    between atoms: _310  and  _311
REMARK  123  A    between atoms: _313  and  _315
REMARK  124  A    between atoms: _315  and  _316
REMARK  125  A    between atoms: _315  and  _318
REMARK  126  A    between atoms: _318  and  _319
REMARK  127  A    between atoms: _322  and  _324
REMARK  128  A    between atoms: _324  and  _325
REMARK  129  A    between atoms: _328  and  _330
REMARK  130  A    between atoms: _330  and  _331
REMARK  131  A    between atoms: _330  and  _333
REMARK  132  A    between atoms: _333  and  _334
REMARK  133  A    between atoms: _337  and  _339
REMARK  134  A    between atoms: _339  and  _340
REMARK  135  A    between atoms: _339  and  _342
REMARK  136  A    between atoms: _342  and  _343
REMARK  137  A    between atoms: _343  and  _344
REMARK  138  A    between atoms: _344  and  _345
REMARK  139  A    between atoms: _345  and  _346
REMARK  140  A    between atoms: _350  and  _352
REMARK  141  A    between atoms: _352  and  _353
REMARK  142  A    between atoms: _352  and  _355
REMARK  143  A    between atoms: _355  and  _356
REMARK  144  A    between atoms: _358  and  _360
REMARK  145  A    between atoms: _360  and  _361
REMARK  146  A    between atoms: _363  and  _365
REMARK  147  A    between atoms: _365  and  _366
REMARK  148  A    between atoms: _365  and  _368
REMARK  149  A    between atoms: _368  and  _369
REMARK  150  A    between atoms: _372  and  _374
REMARK  151  A    between atoms: _374  and  _375
REMARK  152  A    between atoms: _374  and  _377
REMARK  153  A    between atoms: _377  and  _378
REMARK  154  A    between atoms: _381  and  _383
REMARK  155  A    between atoms: _383  and  _384
REMARK  156  A    between atoms: _387  and  _389
REMARK  157  A    between atoms: _389  and  _390
REMARK  158  A    between atoms: _389  and  _392
REMARK  159  A    between atoms: _392  and  _393
REMARK  160  A    between atoms: _393  and  _394
REMARK  161  A    between atoms: _394  and  _395
REMARK  162  A    between atoms: _404  and  _406
REMARK  163  A    between atoms: _406  and  _407
REMARK  164  A    between atoms: _409  and  _411
REMARK  165  A    between atoms: _411  and  _412
REMARK  166  A    between atoms: _411  and  _414
REMARK  167  A    between atoms: _414  and  _415
REMARK  168  A    between atoms: _421  and  _423
REMARK  169  A    between atoms: _423  and  _424
REMARK  170  A    between atoms: _423  and  _426
REMARK  171  A    between atoms: _426  and  _427
REMARK  172  A    between atoms: _430  and  _432
REMARK  173  A    between atoms: _432  and  _433
REMARK  174  A    between atoms: _432  and  _435
REMARK  175  A    between atoms: _435  and  _436
REMARK  176  A    between atoms: _441  and  _443
REMARK  177  A    between atoms: _443  and  _444
REMARK  178  A    between atoms: _443  and  _446
REMARK  179  A    between atoms: _446  and  _447
REMARK  180  A    between atoms: _450  and  _452
REMARK  181  A    between atoms: _452  and  _453
REMARK  182  A    between atoms: _452  and  _455
REMARK  183  A    between atoms: _455  and  _456
REMARK  184  A    between atoms: _461  and  _462
REMARK  185  A    between atoms: _464  and  _466
REMARK  186  A    between atoms: _466  and  _467
REMARK  187  A    between atoms: _466  and  _469
REMARK  188  A    between atoms: _469  and  _470
REMARK  189  A    between atoms: _470  and  _471
REMARK  190  A    between atoms: _474  and  _476
REMARK  191  A    between atoms: _476  and  _477
REMARK  192  A    between atoms: _476  and  _479
REMARK  193  A    between atoms: _479  and  _480
REMARK  194  A    between atoms: _483  and  _485
REMARK  195  A    between atoms: _485  and  _486
REMARK  196  A    between atoms: _488  and  _490
REMARK  197  A    between atoms: _490  and  _491
REMARK  198  A    between atoms: _493  and  _495
REMARK  199  A    between atoms: _495  and  _496
REMARK  200  A    between atoms: _495  and  _498
REMARK  201  A    between atoms: _498  and  _499
REMARK  202  A    between atoms: _499  and  _500
REMARK  203  A    between atoms: _505  and  _507
REMARK  204  A    between atoms: _507  and  _508
REMARK  205  A    between atoms: _511  and  _513
REMARK  206  A    between atoms: _513  and  _514
REMARK  207  A    between atoms: _513  and  _516
REMARK  208  A    between atoms: _516  and  _517
REMARK  209  A    between atoms: _520  and  _522
REMARK  210  A    between atoms: _522  and  _523
REMARK  211  A    between atoms: _522  and  _525
REMARK  212  A    between atoms: _525  and  _526
REMARK  213  A    between atoms: _526  and  _527
REMARK  214  A    between atoms: _532  and  _534
REMARK  215  A    between atoms: _534  and  _535
REMARK  216  A    between atoms: _534  and  _537
REMARK  217  A    between atoms: _537  and  _538
REMARK  218  A    between atoms: _541  and  _543
REMARK  219  A    between atoms: _543  and  _544
REMARK  220  A    between atoms: _543  and  _546
REMARK  221  A    between atoms: _546  and  _547
REMARK  222  A    between atoms: _547  and  _548
REMARK  223  A    between atoms: _548  and  _549
REMARK                            x       y       z     vdW  Elec       q    Type
REMARK                         _______ _______ _______ _____ _____    ______ ____
ROOT
ATOM      1  O   HOH     1      -6.077  16.854 -14.827  0.00  0.00    +0.000 OA
ENDROOT
TORSDOF 0
REMARK  Name = ../refined-set-2016/4r74/4r74_pocket.pdb
REMARK  223 active torsions:
REMARK  status: ('A' for Active; 'I' for Inactive)
REMARK    1  A    between atoms: _1  and  _3
REMARK    2  A    between atoms: _3  and  _4
REMARK    3  A    between atoms: _3  and  _6
REMARK    4  A    between atoms: _6  and  _7
REMARK    5  A    between atoms: _9  and  _11
REMARK    6  A    between atoms: _11  and  _12
REMARK    7  A    between atoms: _15  and  _17
REMARK    8  A    between atoms: _17  and  _18
REMARK    9  A    between atoms: _17  and  _20
REMARK   10  A    between atoms: _20  and  _21
REMARK   11  A    between atoms: _24  and  _26
REMARK   12  A    between atoms: _26  and  _27
REMARK   13  A    between atoms: _26  and  _29
REMARK   14  A    between atoms: _29  and  _30
REMARK   15  A    between atoms: _35  and  _37
REMARK   16  A    between atoms: _37  and  _38
REMARK   17  A    between atoms: _37  and  _40
REMARK   18  A    between atoms: _40  and  _41
REMARK   19  A    between atoms: _41  and  _42
REMARK   20  A    between atoms: _44  and  _46
REMARK   21  A    between atoms: _46  and  _47
REMARK   22  A    between atoms: _46  and  _49
REMARK   23  A    between atoms: _49  and  _50
REMARK   24  A    between atoms: _50  and  _51
REMARK   25  A    between atoms: _51  and  _52
REMARK   26  A    between atoms: _61  and  _63
REMARK   27  A    between atoms: _63  and  _64
REMARK   28  A    between atoms: _63  and  _66
REMARK   29  A    between atoms: _66  and  _67
REMARK   30  A    between atoms: _72  and  _74
REMARK   31  A    between atoms: _74  and  _75
REMARK   32  A    between atoms: _77  and  _79
REMARK   33  A    between atoms: _79  and  _80
REMARK   34  A    between atoms: _79  and  _82
REMARK   35  A    between atoms: _82  and  _83
REMARK   36  A    between atoms: _85  and  _87
REMARK   37  A    between atoms: _87  and  _88
REMARK   38  A    between atoms: _90  and  _92
REMARK   39  A    between atoms: _92  and  _93
REMARK   40  A    between atoms: _92  and  _95
REMARK   41  A    between atoms: _95  and  _96
REMARK   42  A    between atoms: _98  and  _100
REMARK   43  A    between atoms: _100  and  _101
REMARK   44  A    between atoms: _100  and  _103
REMARK   45  A    between atoms: _103  and  _104
REMARK   46  A    between atoms: _107  and  _109
REMARK   47  A    between atoms: _109  and  _110
REMARK   48  A    between atoms: _109  and  _112
REMARK   49  A    between atoms: _112  and  _113
REMARK   50  A    between atoms: _119  and  _121
REMARK   51  A    between atoms: _121  and  _122
REMARK   52  A    between atoms: _121  and  _124
REMARK   53  A    between atoms: _124  and  _125
REMARK   54  A    between atoms: _135  and  _137
REMARK   55  A    between atoms: _137  and  _138
REMARK   56  A    between atoms: _137  and  _140
REMARK   57  A    between atoms: _140  and  _141
REMARK   58  A    between atoms: _146  and  _147
REMARK   59  A    between atoms: _149  and  _151
REMARK   60  A    between atoms: _151  and  _152
REMARK   61  A    between atoms: _154  and  _156
REMARK   62  A    between atoms: _156  and  _157
REMARK   63  A    between atoms: _159  and  _161
REMARK   64  A    between atoms: _161  and  _162
REMARK   65  A    between atoms: _161  and  _164
REMARK   66  A    between atoms: _164  and  _165
REMARK   67  A    between atoms: _168  and  _170
REMARK   68  A    between atoms: _170  and  _171
REMARK   69  A    between atoms: _170  and  _173
REMARK   70  A    between atoms: _173  and  _174
REMARK   71  A    between atoms: _178  and  _179
REMARK   72  A    between atoms: _184  and  _186
REMARK   73  A    between atoms: _186  and  _187
REMARK   74  A    between atoms: _186  and  _189
REMARK   75  A    between atoms: _189  and  _190
REMARK   76  A    between atoms: _190  and  _191
REMARK   77  A    between atoms: _196  and  _198
REMARK   78  A    between atoms: _198  and  _199
REMARK   79  A    between atoms: _198  and  _201
REMARK   80  A    between atoms: _204  and  _206
REMARK   81  A    between atoms: _206  and  _207
REMARK   82  A    between atoms: _206  and  _209
REMARK   83  A    between atoms: _209  and  _210
REMARK   84  A    between atoms: _215  and  _216
REMARK   85  A    between atoms: _218  and  _220
REMARK   86  A    between atoms: _220  and  _221
REMARK   87  A    between atoms: _220  and  _223
REMARK   88  A    between atoms: _223  and  _224
REMARK   89  A    between atoms: _227  and  _229
REMARK   90  A    between atoms: _229  and  _230
REMARK   91  A    between atoms: _232  and  _234
REMARK   92  A    between atoms: _234  and  _235
REMARK   93  A    between atoms: _234  and  _237
REMARK   94  A    between atoms: _237  and  _238
REMARK   95  A    between atoms: _241  and  _243
REMARK   96  A    between atoms: _243  and  _244
REMARK   97  A    between atoms: _247  and  _249
REMARK   98  A    between atoms: _249  and  _250
REMARK   99  A    between atoms: _249  and  _252
REMARK  100  A    between atoms: _252  and  _253
REMARK  101  A    between atoms: _257  and  _258
REMARK  102  A    between atoms: _263  and  _265
REMARK  103  A    between atoms: _265  and  _266
REMARK  104  A    between atoms: _265  and  _268
REMARK  105  A    between atoms: _268  and  _269
REMARK  106  A    between atoms: _271  and  _273
REMARK  107  A    between atoms: _273  and  _274
REMARK  108  A    between atoms: _273  and  _276
REMARK  109  A    between atoms: _276  and  _277
REMARK  110  A    between atoms: _279  and  _281
REMARK  111  A    between atoms: _281  and  _282
REMARK  112  A    between atoms: _284  and  _286
REMARK  113  A    between atoms: _286  and  _287
REMARK  114  A    between atoms: _286  and  _289
REMARK  115  A    between atoms: _289  and  _290
REMARK  116  A    between atoms: _293  and  _295
REMARK  117  A    between atoms: _295  and  _296
REMARK  118  A    between atoms: _299  and  _301
REMARK  119  A    between atoms: _301  and  _302
REMARK  120  A    between atoms: _301  and  _304
REMARK  121  A    between atoms: _304  and  _305
REMARK  122  A    between atoms: _310  and  _311
REMARK  123  A    between atoms: _313  and  _315
REMARK  124  A    between atoms: _315  and  _316
REMARK  125  A    between atoms: _315  and  _318
REMARK  126  A    between atoms: _318  and  _319
REMARK  127  A    between atoms: _322  and  _324
REMARK  128  A    between atoms: _324  and  _325
REMARK  129  A    between atoms: _328  and  _330
REMARK  130  A    between atoms: _330  and  _331
REMARK  131  A    between atoms: _330  and  _333
REMARK  132  A    between atoms: _333  and  _334
REMARK  133  A    between atoms: _337  and  _339
REMARK  134  A    between atoms: _339  and  _340
REMARK  135  A    between atoms: _339  and  _342
REMARK  136  A    between atoms: _342  and  _343
REMARK  137  A    between atoms: _343  and  _344
REMARK  138  A    between atoms: _344  and  _345
REMARK  139  A    between atoms: _345  and  _346
REMARK  140  A    between atoms: _350  and  _352
REMARK  141  A    between atoms: _352  and  _353
REMARK  142  A    between atoms: _352  and  _355
REMARK  143  A    between atoms: _355  and  _356
REMARK  144  A    between atoms: _358  and  _360
REMARK  145  A    between atoms: _360  and  _361
REMARK  146  A    between atoms: _363  and  _365
REMARK  147  A    between atoms: _365  and  _366
REMARK  148  A    between atoms: _365  and  _368
REMARK  149  A    between atoms: _368  and  _369
REMARK  150  A    between atoms: _372  and  _374
REMARK  151  A    between atoms: _374  and  _375
REMARK  152  A    between atoms: _374  and  _377
REMARK  153  A    between atoms: _377  and  _378
REMARK  154  A    between atoms: _381  and  _383
REMARK  155  A    between atoms: _383  and  _384
REMARK  156  A    between atoms: _387  and  _389
REMARK  157  A    between atoms: _389  and  _390
REMARK  158  A    between atoms: _389  and  _392
REMARK  159  A    between atoms: _392  and  _393
REMARK  160  A    between atoms: _393  and  _394
REMARK  161  A    between atoms: _394  and  _395
REMARK  162  A    between atoms: _404  and  _406
REMARK  163  A    between atoms: _406  and  _407
REMARK  164  A    between atoms: _409  and  _411
REMARK  165  A    between atoms: _411  and  _412
REMARK  166  A    between atoms: _411  and  _414
REMARK  167  A    between atoms: _414  and  _415
REMARK  168  A    between atoms: _421  and  _423
REMARK  169  A    between atoms: _423  and  _424
REMARK  170  A    between atoms: _423  and  _426
REMARK  171  A    between atoms: _426  and  _427
REMARK  172  A    between atoms: _430  and  _432
REMARK  173  A    between atoms: _432  and  _433
REMARK  174  A    between atoms: _432  and  _435
REMARK  175  A    between atoms: _435  and  _436
REMARK  176  A    between atoms: _441  and  _443
REMARK  177  A    between atoms: _443  and  _444
REMARK  178  A    between atoms: _443  and  _446
REMARK  179  A    between atoms: _446  and  _447
REMARK  180  A    between atoms: _450  and  _452
REMARK  181  A    between atoms: _452  and  _453
REMARK  182  A    between atoms: _452  and  _455
REMARK  183  A    between atoms: _455  and  _456
REMARK  184  A    between atoms: _461  and  _462
REMARK  185  A    between atoms: _464  and  _466
REMARK  186  A    between atoms: _466  and  _467
REMARK  187  A    between atoms: _466  and  _469
REMARK  188  A    between atoms: _469  and  _470
REMARK  189  A    between atoms: _470  and  _471
REMARK  190  A    between atoms: _474  and  _476
REMARK  191  A    between atoms: _476  and  _477
REMARK  192  A    between atoms: _476  and  _479
REMARK  193  A    between atoms: _479  and  _480
REMARK  194  A    between atoms: _483  and  _485
REMARK  195  A    between atoms: _485  and  _486
REMARK  196  A    between atoms: _488  and  _490
REMARK  197  A    between atoms: _490  and  _491
REMARK  198  A    between atoms: _493  and  _495
REMARK  199  A    between atoms: _495  and  _496
REMARK  200  A    between atoms: _495  and  _498
REMARK  201  A    between atoms: _498  and  _499
REMARK  202  A    between atoms: _499  and  _500
REMARK  203  A    between atoms: _505  and  _507
REMARK  204  A    between atoms: _507  and  _508
REMARK  205  A    between atoms: _511  and  _513
REMARK  206  A    between atoms: _513  and  _514
REMARK  207  A    between atoms: _513  and  _516
REMARK  208  A    between atoms: _516  and  _517
REMARK  209  A    between atoms: _520  and  _522
REMARK  210  A    between atoms: _522  and  _523
REMARK  211  A    between atoms: _522  and  _525
REMARK  212  A    between atoms: _525  and  _526
REMARK  213  A    between atoms: _526  and  _527
REMARK  214  A    between atoms: _532  and  _534
REMARK  215  A    between atoms: _534  and  _535
REMARK  216  A    between atoms: _534  and  _537
REMARK  217  A    between atoms: _537  and  _538
REMARK  218  A    between atoms: _541  and  _543
REMARK  219  A    between atoms: _543  and  _544
REMARK  220  A    between atoms: _543  and  _546
REMARK  221  A    between atoms: _546  and  _547
REMARK  222  A    between atoms: _547  and  _548
REMARK  223  A    between atoms: _548  and  _549
REMARK                            x       y       z     vdW  Elec       q    Type
REMARK                         _______ _______ _______ _____ _____    ______ ____
ROOT
ATOM      1  O   HOH     1     -13.124  20.349 -15.937  0.00  0.00    +0.000 OA
ENDROOT
TORSDOF 0
REMARK  Name = ../refined-set-2016/4r74/4r74_pocket.pdb
REMARK  223 active torsions:
REMARK  status: ('A' for Active; 'I' for Inactive)
REMARK    1  A    between atoms: _1  and  _3
REMARK    2  A    between atoms: _3  and  _4
REMARK    3  A    between atoms: _3  and  _6
REMARK    4  A    between atoms: _6  and  _7
REMARK    5  A    between atoms: _9  and  _11
REMARK    6  A    between atoms: _11  and  _12
REMARK    7  A    between atoms: _15  and  _17
REMARK    8  A    between atoms: _17  and  _18
REMARK    9  A    between atoms: _17  and  _20
REMARK   10  A    between atoms: _20  and  _21
REMARK   11  A    between atoms: _24  and  _26
REMARK   12  A    between atoms: _26  and  _27
REMARK   13  A    between atoms: _26  and  _29
REMARK   14  A    between atoms: _29  and  _30
REMARK   15  A    between atoms: _35  and  _37
REMARK   16  A    between atoms: _37  and  _38
REMARK   17  A    between atoms: _37  and  _40
REMARK   18  A    between atoms: _40  and  _41
REMARK   19  A    between atoms: _41  and  _42
REMARK   20  A    between atoms: _44  and  _46
REMARK   21  A    between atoms: _46  and  _47
REMARK   22  A    between atoms: _46  and  _49
REMARK   23  A    between atoms: _49  and  _50
REMARK   24  A    between atoms: _50  and  _51
REMARK   25  A    between atoms: _51  and  _52
REMARK   26  A    between atoms: _61  and  _63
REMARK   27  A    between atoms: _63  and  _64
REMARK   28  A    between atoms: _63  and  _66
REMARK   29  A    between atoms: _66  and  _67
REMARK   30  A    between atoms: _72  and  _74
REMARK   31  A    between atoms: _74  and  _75
REMARK   32  A    between atoms: _77  and  _79
REMARK   33  A    between atoms: _79  and  _80
REMARK   34  A    between atoms: _79  and  _82
REMARK   35  A    between atoms: _82  and  _83
REMARK   36  A    between atoms: _85  and  _87
REMARK   37  A    between atoms: _87  and  _88
REMARK   38  A    between atoms: _90  and  _92
REMARK   39  A    between atoms: _92  and  _93
REMARK   40  A    between atoms: _92  and  _95
REMARK   41  A    between atoms: _95  and  _96
REMARK   42  A    between atoms: _98  and  _100
REMARK   43  A    between atoms: _100  and  _101
REMARK   44  A    between atoms: _100  and  _103
REMARK   45  A    between atoms: _103  and  _104
REMARK   46  A    between atoms: _107  and  _109
REMARK   47  A    between atoms: _109  and  _110
REMARK   48  A    between atoms: _109  and  _112
REMARK   49  A    between atoms: _112  and  _113
REMARK   50  A    between atoms: _119  and  _121
REMARK   51  A    between atoms: _121  and  _122
REMARK   52  A    between atoms: _121  and  _124
REMARK   53  A    between atoms: _124  and  _125
REMARK   54  A    between atoms: _135  and  _137
REMARK   55  A    between atoms: _137  and  _138
REMARK   56  A    between atoms: _137  and  _140
REMARK   57  A    between atoms: _140  and  _141
REMARK   58  A    between atoms: _146  and  _147
REMARK   59  A    between atoms: _149  and  _151
REMARK   60  A    between atoms: _151  and  _152
REMARK   61  A    between atoms: _154  and  _156
REMARK   62  A    between atoms: _156  and  _157
REMARK   63  A    between atoms: _159  and  _161
REMARK   64  A    between atoms: _161  and  _162
REMARK   65  A    between atoms: _161  and  _164
REMARK   66  A    between atoms: _164  and  _165
REMARK   67  A    between atoms: _168  and  _170
REMARK   68  A    between atoms: _170  and  _171
REMARK   69  A    between atoms: _170  and  _173
REMARK   70  A    between atoms: _173  and  _174
REMARK   71  A    between atoms: _178  and  _179
REMARK   72  A    between atoms: _184  and  _186
REMARK   73  A    between atoms: _186  and  _187
REMARK   74  A    between atoms: _186  and  _189
REMARK   75  A    between atoms: _189  and  _190
REMARK   76  A    between atoms: _190  and  _191
REMARK   77  A    between atoms: _196  and  _198
REMARK   78  A    between atoms: _198  and  _199
REMARK   79  A    between atoms: _198  and  _201
REMARK   80  A    between atoms: _204  and  _206
REMARK   81  A    between atoms: _206  and  _207
REMARK   82  A    between atoms: _206  and  _209
REMARK   83  A    between atoms: _209  and  _210
REMARK   84  A    between atoms: _215  and  _216
REMARK   85  A    between atoms: _218  and  _220
REMARK   86  A    between atoms: _220  and  _221
REMARK   87  A    between atoms: _220  and  _223
REMARK   88  A    between atoms: _223  and  _224
REMARK   89  A    between atoms: _227  and  _229
REMARK   90  A    between atoms: _229  and  _230
REMARK   91  A    between atoms: _232  and  _234
REMARK   92  A    between atoms: _234  and  _235
REMARK   93  A    between atoms: _234  and  _237
REMARK   94  A    between atoms: _237  and  _238
REMARK   95  A    between atoms: _241  and  _243
REMARK   96  A    between atoms: _243  and  _244
REMARK   97  A    between atoms: _247  and  _249
REMARK   98  A    between atoms: _249  and  _250
REMARK   99  A    between atoms: _249  and  _252
REMARK  100  A    between atoms: _252  and  _253
REMARK  101  A    between atoms: _257  and  _258
REMARK  102  A    between atoms: _263  and  _265
REMARK  103  A    between atoms: _265  and  _266
REMARK  104  A    between atoms: _265  and  _268
REMARK  105  A    between atoms: _268  and  _269
REMARK  106  A    between atoms: _271  and  _273
REMARK  107  A    between atoms: _273  and  _274
REMARK  108  A    between atoms: _273  and  _276
REMARK  109  A    between atoms: _276  and  _277
REMARK  110  A    between atoms: _279  and  _281
REMARK  111  A    between atoms: _281  and  _282
REMARK  112  A    between atoms: _284  and  _286
REMARK  113  A    between atoms: _286  and  _287
REMARK  114  A    between atoms: _286  and  _289
REMARK  115  A    between atoms: _289  and  _290
REMARK  116  A    between atoms: _293  and  _295
REMARK  117  A    between atoms: _295  and  _296
REMARK  118  A    between atoms: _299  and  _301
REMARK  119  A    between atoms: _301  and  _302
REMARK  120  A    between atoms: _301  and  _304
REMARK  121  A    between atoms: _304  and  _305
REMARK  122  A    between atoms: _310  and  _311
REMARK  123  A    between atoms: _313  and  _315
REMARK  124  A    between atoms: _315  and  _316
REMARK  125  A    between atoms: _315  and  _318
REMARK  126  A    between atoms: _318  and  _319
REMARK  127  A    between atoms: _322  and  _324
REMARK  128  A    between atoms: _324  and  _325
REMARK  129  A    between atoms: _328  and  _330
REMARK  130  A    between atoms: _330  and  _331
REMARK  131  A    between atoms: _330  and  _333
REMARK  132  A    between atoms: _333  and  _334
REMARK  133  A    between atoms: _337  and  _339
REMARK  134  A    between atoms: _339  and  _340
REMARK  135  A    between atoms: _339  and  _342
REMARK  136  A    between atoms: _342  and  _343
REMARK  137  A    between atoms: _343  and  _344
REMARK  138  A    between atoms: _344  and  _345
REMARK  139  A    between atoms: _345  and  _346
REMARK  140  A    between atoms: _350  and  _352
REMARK  141  A    between atoms: _352  and  _353
REMARK  142  A    between atoms: _352  and  _355
REMARK  143  A    between atoms: _355  and  _356
REMARK  144  A    between atoms: _358  and  _360
REMARK  145  A    between atoms: _360  and  _361
REMARK  146  A    between atoms: _363  and  _365
REMARK  147  A    between atoms: _365  and  _366
REMARK  148  A    between atoms: _365  and  _368
REMARK  149  A    between atoms: _368  and  _369
REMARK  150  A    between atoms: _372  and  _374
REMARK  151  A    between atoms: _374  and  _375
REMARK  152  A    between atoms: _374  and  _377
REMARK  153  A    between atoms: _377  and  _378
REMARK  154  A    between atoms: _381  and  _383
REMARK  155  A    between atoms: _383  and  _384
REMARK  156  A    between atoms: _387  and  _389
REMARK  157  A    between atoms: _389  and  _390
REMARK  158  A    between atoms: _389  and  _392
REMARK  159  A    between atoms: _392  and  _393
REMARK  160  A    between atoms: _393  and  _394
REMARK  161  A    between atoms: _394  and  _395
REMARK  162  A    between atoms: _404  and  _406
REMARK  163  A    between atoms: _406  and  _407
REMARK  164  A    between atoms: _409  and  _411
REMARK  165  A    between atoms: _411  and  _412
REMARK  166  A    between atoms: _411  and  _414
REMARK  167  A    between atoms: _414  and  _415
REMARK  168  A    between atoms: _421  and  _423
REMARK  169  A    between atoms: _423  and  _424
REMARK  170  A    between atoms: _423  and  _426
REMARK  171  A    between atoms: _426  and  _427
REMARK  172  A    between atoms: _430  and  _432
REMARK  173  A    between atoms: _432  and  _433
REMARK  174  A    between atoms: _432  and  _435
REMARK  175  A    between atoms: _435  and  _436
REMARK  176  A    between atoms: _441  and  _443
REMARK  177  A    between atoms: _443  and  _444
REMARK  178  A    between atoms: _443  and  _446
REMARK  179  A    between atoms: _446  and  _447
REMARK  180  A    between atoms: _450  and  _452
REMARK  181  A    between atoms: _452  and  _453
REMARK  182  A    between atoms: _452  and  _455
REMARK  183  A    between atoms: _455  and  _456
REMARK  184  A    between atoms: _461  and  _462
REMARK  185  A    between atoms: _464  and  _466
REMARK  186  A    between atoms: _466  and  _467
REMARK  187  A    between atoms: _466  and  _469
REMARK  188  A    between atoms: _469  and  _470
REMARK  189  A    between atoms: _470  and  _471
REMARK  190  A    between atoms: _474  and  _476
REMARK  191  A    between atoms: _476  and  _477
REMARK  192  A    between atoms: _476  and  _479
REMARK  193  A    between atoms: _479  and  _480
REMARK  194  A    between atoms: _483  and  _485
REMARK  195  A    between atoms: _485  and  _486
REMARK  196  A    between atoms: _488  and  _490
REMARK  197  A    between atoms: _490  and  _491
REMARK  198  A    between atoms: _493  and  _495
REMARK  199  A    between atoms: _495  and  _496
REMARK  200  A    between atoms: _495  and  _498
REMARK  201  A    between atoms: _498  and  _499
REMARK  202  A    between atoms: _499  and  _500
REMARK  203  A    between atoms: _505  and  _507
REMARK  204  A    between atoms: _507  and  _508
REMARK  205  A    between atoms: _511  and  _513
REMARK  206  A    between atoms: _513  and  _514
REMARK  207  A    between atoms: _513  and  _516
REMARK  208  A    between atoms: _516  and  _517
REMARK  209  A    between atoms: _520  and  _522
REMARK  210  A    between atoms: _522  and  _523
REMARK  211  A    between atoms: _522  and  _525
REMARK  212  A    between atoms: _525  and  _526
REMARK  213  A    between atoms: _526  and  _527
REMARK  214  A    between atoms: _532  and  _534
REMARK  215  A    between atoms: _534  and  _535
REMARK  216  A    between atoms: _534  and  _537
REMARK  217  A    between atoms: _537  and  _538
REMARK  218  A    between atoms: _541  and  _543
REMARK  219  A    between atoms: _543  and  _544
REMARK  220  A    between atoms: _543  and  _546
REMARK  221  A    between atoms: _546  and  _547
REMARK  222  A    between atoms: _547  and  _548
REMARK  223  A    between atoms: _548  and  _549
REMARK                            x       y       z     vdW  Elec       q    Type
REMARK                         _______ _______ _______ _____ _____    ______ ____
ROOT
ATOM      1  O   HOH     1     -16.003  24.386 -11.717  0.00  0.00    +0.000 OA
ENDROOT
TORSDOF 0
REMARK  Name = ../refined-set-2016/4r74/4r74_pocket.pdb
REMARK  223 active torsions:
REMARK  status: ('A' for Active; 'I' for Inactive)
REMARK    1  A    between atoms: _1  and  _3
REMARK    2  A    between atoms: _3  and  _4
REMARK    3  A    between atoms: _3  and  _6
REMARK    4  A    between atoms: _6  and  _7
REMARK    5  A    between atoms: _9  and  _11
REMARK    6  A    between atoms: _11  and  _12
REMARK    7  A    between atoms: _15  and  _17
REMARK    8  A    between atoms: _17  and  _18
REMARK    9  A    between atoms: _17  and  _20
REMARK   10  A    between atoms: _20  and  _21
REMARK   11  A    between atoms: _24  and  _26
REMARK   12  A    between atoms: _26  and  _27
REMARK   13  A    between atoms: _26  and  _29
REMARK   14  A    between atoms: _29  and  _30
REMARK   15  A    between atoms: _35  and  _37
REMARK   16  A    between atoms: _37  and  _38
REMARK   17  A    between atoms: _37  and  _40
REMARK   18  A    between atoms: _40  and  _41
REMARK   19  A    between atoms: _41  and  _42
REMARK   20  A    between atoms: _44  and  _46
REMARK   21  A    between atoms: _46  and  _47
REMARK   22  A    between atoms: _46  and  _49
REMARK   23  A    between atoms: _49  and  _50
REMARK   24  A    between atoms: _50  and  _51
REMARK   25  A    between atoms: _51  and  _52
REMARK   26  A    between atoms: _61  and  _63
REMARK   27  A    between atoms: _63  and  _64
REMARK   28  A    between atoms: _63  and  _66
REMARK   29  A    between atoms: _66  and  _67
REMARK   30  A    between atoms: _72  and  _74
REMARK   31  A    between atoms: _74  and  _75
REMARK   32  A    between atoms: _77  and  _79
REMARK   33  A    between atoms: _79  and  _80
REMARK   34  A    between atoms: _79  and  _82
REMARK   35  A    between atoms: _82  and  _83
REMARK   36  A    between atoms: _85  and  _87
REMARK   37  A    between atoms: _87  and  _88
REMARK   38  A    between atoms: _90  and  _92
REMARK   39  A    between atoms: _92  and  _93
REMARK   40  A    between atoms: _92  and  _95
REMARK   41  A    between atoms: _95  and  _96
REMARK   42  A    between atoms: _98  and  _100
REMARK   43  A    between atoms: _100  and  _101
REMARK   44  A    between atoms: _100  and  _103
REMARK   45  A    between atoms: _103  and  _104
REMARK   46  A    between atoms: _107  and  _109
REMARK   47  A    between atoms: _109  and  _110
REMARK   48  A    between atoms: _109  and  _112
REMARK   49  A    between atoms: _112  and  _113
REMARK   50  A    between atoms: _119  and  _121
REMARK   51  A    between atoms: _121  and  _122
REMARK   52  A    between atoms: _121  and  _124
REMARK   53  A    between atoms: _124  and  _125
REMARK   54  A    between atoms: _135  and  _137
REMARK   55  A    between atoms: _137  and  _138
REMARK   56  A    between atoms: _137  and  _140
REMARK   57  A    between atoms: _140  and  _141
REMARK   58  A    between atoms: _146  and  _147
REMARK   59  A    between atoms: _149  and  _151
REMARK   60  A    between atoms: _151  and  _152
REMARK   61  A    between atoms: _154  and  _156
REMARK   62  A    between atoms: _156  and  _157
REMARK   63  A    between atoms: _159  and  _161
REMARK   64  A    between atoms: _161  and  _162
REMARK   65  A    between atoms: _161  and  _164
REMARK   66  A    between atoms: _164  and  _165
REMARK   67  A    between atoms: _168  and  _170
REMARK   68  A    between atoms: _170  and  _171
REMARK   69  A    between atoms: _170  and  _173
REMARK   70  A    between atoms: _173  and  _174
REMARK   71  A    between atoms: _178  and  _179
REMARK   72  A    between atoms: _184  and  _186
REMARK   73  A    between atoms: _186  and  _187
REMARK   74  A    between atoms: _186  and  _189
REMARK   75  A    between atoms: _189  and  _190
REMARK   76  A    between atoms: _190  and  _191
REMARK   77  A    between atoms: _196  and  _198
REMARK   78  A    between atoms: _198  and  _199
REMARK   79  A    between atoms: _198  and  _201
REMARK   80  A    between atoms: _204  and  _206
REMARK   81  A    between atoms: _206  and  _207
REMARK   82  A    between atoms: _206  and  _209
REMARK   83  A    between atoms: _209  and  _210
REMARK   84  A    between atoms: _215  and  _216
REMARK   85  A    between atoms: _218  and  _220
REMARK   86  A    between atoms: _220  and  _221
REMARK   87  A    between atoms: _220  and  _223
REMARK   88  A    between atoms: _223  and  _224
REMARK   89  A    between atoms: _227  and  _229
REMARK   90  A    between atoms: _229  and  _230
REMARK   91  A    between atoms: _232  and  _234
REMARK   92  A    between atoms: _234  and  _235
REMARK   93  A    between atoms: _234  and  _237
REMARK   94  A    between atoms: _237  and  _238
REMARK   95  A    between atoms: _241  and  _243
REMARK   96  A    between atoms: _243  and  _244
REMARK   97  A    between atoms: _247  and  _249
REMARK   98  A    between atoms: _249  and  _250
REMARK   99  A    between atoms: _249  and  _252
REMARK  100  A    between atoms: _252  and  _253
REMARK  101  A    between atoms: _257  and  _258
REMARK  102  A    between atoms: _263  and  _265
REMARK  103  A    between atoms: _265  and  _266
REMARK  104  A    between atoms: _265  and  _268
REMARK  105  A    between atoms: _268  and  _269
REMARK  106  A    between atoms: _271  and  _273
REMARK  107  A    between atoms: _273  and  _274
REMARK  108  A    between atoms: _273  and  _276
REMARK  109  A    between atoms: _276  and  _277
REMARK  110  A    between atoms: _279  and  _281
REMARK  111  A    between atoms: _281  and  _282
REMARK  112  A    between atoms: _284  and  _286
REMARK  113  A    between atoms: _286  and  _287
REMARK  114  A    between atoms: _286  and  _289
REMARK  115  A    between atoms: _289  and  _290
REMARK  116  A    between atoms: _293  and  _295
REMARK  117  A    between atoms: _295  and  _296
REMARK  118  A    between atoms: _299  and  _301
REMARK  119  A    between atoms: _301  and  _302
REMARK  120  A    between atoms: _301  and  _304
REMARK  121  A    between atoms: _304  and  _305
REMARK  122  A    between atoms: _310  and  _311
REMARK  123  A    between atoms: _313  and  _315
REMARK  124  A    between atoms: _315  and  _316
REMARK  125  A    between atoms: _315  and  _318
REMARK  126  A    between atoms: _318  and  _319
REMARK  127  A    between atoms: _322  and  _324
REMARK  128  A    between atoms: _324  and  _325
REMARK  129  A    between atoms: _328  and  _330
REMARK  130  A    between atoms: _330  and  _331
REMARK  131  A    between atoms: _330  and  _333
REMARK  132  A    between atoms: _333  and  _334
REMARK  133  A    between atoms: _337  and  _339
REMARK  134  A    between atoms: _339  and  _340
REMARK  135  A    between atoms: _339  and  _342
REMARK  136  A    between atoms: _342  and  _343
REMARK  137  A    between atoms: _343  and  _344
REMARK  138  A    between atoms: _344  and  _345
REMARK  139  A    between atoms: _345  and  _346
REMARK  140  A    between atoms: _350  and  _352
REMARK  141  A    between atoms: _352  and  _353
REMARK  142  A    between atoms: _352  and  _355
REMARK  143  A    between atoms: _355  and  _356
REMARK  144  A    between atoms: _358  and  _360
REMARK  145  A    between atoms: _360  and  _361
REMARK  146  A    between atoms: _363  and  _365
REMARK  147  A    between atoms: _365  and  _366
REMARK  148  A    between atoms: _365  and  _368
REMARK  149  A    between atoms: _368  and  _369
REMARK  150  A    between atoms: _372  and  _374
REMARK  151  A    between atoms: _374  and  _375
REMARK  152  A    between atoms: _374  and  _377
REMARK  153  A    between atoms: _377  and  _378
REMARK  154  A    between atoms: _381  and  _383
REMARK  155  A    between atoms: _383  and  _384
REMARK  156  A    between atoms: _387  and  _389
REMARK  157  A    between atoms: _389  and  _390
REMARK  158  A    between atoms: _389  and  _392
REMARK  159  A    between atoms: _392  and  _393
REMARK  160  A    between atoms: _393  and  _394
REMARK  161  A    between atoms: _394  and  _395
REMARK  162  A    between atoms: _404  and  _406
REMARK  163  A    between atoms: _406  and  _407
REMARK  164  A    between atoms: _409  and  _411
REMARK  165  A    between atoms: _411  and  _412
REMARK  166  A    between atoms: _411  and  _414
REMARK  167  A    between atoms: _414  and  _415
REMARK  168  A    between atoms: _421  and  _423
REMARK  169  A    between atoms: _423  and  _424
REMARK  170  A    between atoms: _423  and  _426
REMARK  171  A    between atoms: _426  and  _427
REMARK  172  A    between atoms: _430  and  _432
REMARK  173  A    between atoms: _432  and  _433
REMARK  174  A    between atoms: _432  and  _435
REMARK  175  A    between atoms: _435  and  _436
REMARK  176  A    between atoms: _441  and  _443
REMARK  177  A    between atoms: _443  and  _444
REMARK  178  A    between atoms: _443  and  _446
REMARK  179  A    between atoms: _446  and  _447
REMARK  180  A    between atoms: _450  and  _452
REMARK  181  A    between atoms: _452  and  _453
REMARK  182  A    between atoms: _452  and  _455
REMARK  183  A    between atoms: _455  and  _456
REMARK  184  A    between atoms: _461  and  _462
REMARK  185  A    between atoms: _464  and  _466
REMARK  186  A    between atoms: _466  and  _467
REMARK  187  A    between atoms: _466  and  _469
REMARK  188  A    between atoms: _469  and  _470
REMARK  189  A    between atoms: _470  and  _471
REMARK  190  A    between atoms: _474  and  _476
REMARK  191  A    between atoms: _476  and  _477
REMARK  192  A    between atoms: _476  and  _479
REMARK  193  A    between atoms: _479  and  _480
REMARK  194  A    between atoms: _483  and  _485
REMARK  195  A    between atoms: _485  and  _486
REMARK  196  A    between atoms: _488  and  _490
REMARK  197  A    between atoms: _490  and  _491
REMARK  198  A    between atoms: _493  and  _495
REMARK  199  A    between atoms: _495  and  _496
REMARK  200  A    between atoms: _495  and  _498
REMARK  201  A    between atoms: _498  and  _499
REMARK  202  A    between atoms: _499  and  _500
REMARK  203  A    between atoms: _505  and  _507
REMARK  204  A    between atoms: _507  and  _508
REMARK  205  A    between atoms: _511  and  _513
REMARK  206  A    between atoms: _513  and  _514
REMARK  207  A    between atoms: _513  and  _516
REMARK  208  A    between atoms: _516  and  _517
REMARK  209  A    between atoms: _520  and  _522
REMARK  210  A    between atoms: _522  and  _523
REMARK  211  A    between atoms: _522  and  _525
REMARK  212  A    between atoms: _525  and  _526
REMARK  213  A    between atoms: _526  and  _527
REMARK  214  A    between atoms: _532  and  _534
REMARK  215  A    between atoms: _534  and  _535
REMARK  216  A    between atoms: _534  and  _537
REMARK  217  A    between atoms: _537  and  _538
REMARK  218  A    between atoms: _541  and  _543
REMARK  219  A    between atoms: _543  and  _544
REMARK  220  A    between atoms: _543  and  _546
REMARK  221  A    between atoms: _546  and  _547
REMARK  222  A    between atoms: _547  and  _548
REMARK  223  A    between atoms: _548  and  _549
REMARK                            x       y       z     vdW  Elec       q    Type
REMARK                         _______ _______ _______ _____ _____    ______ ____
ROOT
ATOM      1  O   HOH     1     -17.967  19.131 -11.843  0.00  0.00    +0.000 OA
ENDROOT
TORSDOF 0
REMARK  Name = ../refined-set-2016/4r74/4r74_pocket.pdb
REMARK  223 active torsions:
REMARK  status: ('A' for Active; 'I' for Inactive)
REMARK    1  A    between atoms: _1  and  _3
REMARK    2  A    between atoms: _3  and  _4
REMARK    3  A    between atoms: _3  and  _6
REMARK    4  A    between atoms: _6  and  _7
REMARK    5  A    between atoms: _9  and  _11
REMARK    6  A    between atoms: _11  and  _12
REMARK    7  A    between atoms: _15  and  _17
REMARK    8  A    between atoms: _17  and  _18
REMARK    9  A    between atoms: _17  and  _20
REMARK   10  A    between atoms: _20  and  _21
REMARK   11  A    between atoms: _24  and  _26
REMARK   12  A    between atoms: _26  and  _27
REMARK   13  A    between atoms: _26  and  _29
REMARK   14  A    between atoms: _29  and  _30
REMARK   15  A    between atoms: _35  and  _37
REMARK   16  A    between atoms: _37  and  _38
REMARK   17  A    between atoms: _37  and  _40
REMARK   18  A    between atoms: _40  and  _41
REMARK   19  A    between atoms: _41  and  _42
REMARK   20  A    between atoms: _44  and  _46
REMARK   21  A    between atoms: _46  and  _47
REMARK   22  A    between atoms: _46  and  _49
REMARK   23  A    between atoms: _49  and  _50
REMARK   24  A    between atoms: _50  and  _51
REMARK   25  A    between atoms: _51  and  _52
REMARK   26  A    between atoms: _61  and  _63
REMARK   27  A    between atoms: _63  and  _64
REMARK   28  A    between atoms: _63  and  _66
REMARK   29  A    between atoms: _66  and  _67
REMARK   30  A    between atoms: _72  and  _74
REMARK   31  A    between atoms: _74  and  _75
REMARK   32  A    between atoms: _77  and  _79
REMARK   33  A    between atoms: _79  and  _80
REMARK   34  A    between atoms: _79  and  _82
REMARK   35  A    between atoms: _82  and  _83
REMARK   36  A    between atoms: _85  and  _87
REMARK   37  A    between atoms: _87  and  _88
REMARK   38  A    between atoms: _90  and  _92
REMARK   39  A    between atoms: _92  and  _93
REMARK   40  A    between atoms: _92  and  _95
REMARK   41  A    between atoms: _95  and  _96
REMARK   42  A    between atoms: _98  and  _100
REMARK   43  A    between atoms: _100  and  _101
REMARK   44  A    between atoms: _100  and  _103
REMARK   45  A    between atoms: _103  and  _104
REMARK   46  A    between atoms: _107  and  _109
REMARK   47  A    between atoms: _109  and  _110
REMARK   48  A    between atoms: _109  and  _112
REMARK   49  A    between atoms: _112  and  _113
REMARK   50  A    between atoms: _119  and  _121
REMARK   51  A    between atoms: _121  and  _122
REMARK   52  A    between atoms: _121  and  _124
REMARK   53  A    between atoms: _124  and  _125
REMARK   54  A    between atoms: _135  and  _137
REMARK   55  A    between atoms: _137  and  _138
REMARK   56  A    between atoms: _137  and  _140
REMARK   57  A    between atoms: _140  and  _141
REMARK   58  A    between atoms: _146  and  _147
REMARK   59  A    between atoms: _149  and  _151
REMARK   60  A    between atoms: _151  and  _152
REMARK   61  A    between atoms: _154  and  _156
REMARK   62  A    between atoms: _156  and  _157
REMARK   63  A    between atoms: _159  and  _161
REMARK   64  A    between atoms: _161  and  _162
REMARK   65  A    between atoms: _161  and  _164
REMARK   66  A    between atoms: _164  and  _165
REMARK   67  A    between atoms: _168  and  _170
REMARK   68  A    between atoms: _170  and  _171
REMARK   69  A    between atoms: _170  and  _173
REMARK   70  A    between atoms: _173  and  _174
REMARK   71  A    between atoms: _178  and  _179
REMARK   72  A    between atoms: _184  and  _186
REMARK   73  A    between atoms: _186  and  _187
REMARK   74  A    between atoms: _186  and  _189
REMARK   75  A    between atoms: _189  and  _190
REMARK   76  A    between atoms: _190  and  _191
REMARK   77  A    between atoms: _196  and  _198
REMARK   78  A    between atoms: _198  and  _199
REMARK   79  A    between atoms: _198  and  _201
REMARK   80  A    between atoms: _204  and  _206
REMARK   81  A    between atoms: _206  and  _207
REMARK   82  A    between atoms: _206  and  _209
REMARK   83  A    between atoms: _209  and  _210
REMARK   84  A    between atoms: _215  and  _216
REMARK   85  A    between atoms: _218  and  _220
REMARK   86  A    between atoms: _220  and  _221
REMARK   87  A    between atoms: _220  and  _223
REMARK   88  A    between atoms: _223  and  _224
REMARK   89  A    between atoms: _227  and  _229
REMARK   90  A    between atoms: _229  and  _230
REMARK   91  A    between atoms: _232  and  _234
REMARK   92  A    between atoms: _234  and  _235
REMARK   93  A    between atoms: _234  and  _237
REMARK   94  A    between atoms: _237  and  _238
REMARK   95  A    between atoms: _241  and  _243
REMARK   96  A    between atoms: _243  and  _244
REMARK   97  A    between atoms: _247  and  _249
REMARK   98  A    between atoms: _249  and  _250
REMARK   99  A    between atoms: _249  and  _252
REMARK  100  A    between atoms: _252  and  _253
REMARK  101  A    between atoms: _257  and  _258
REMARK  102  A    between atoms: _263  and  _265
REMARK  103  A    between atoms: _265  and  _266
REMARK  104  A    between atoms: _265  and  _268
REMARK  105  A    between atoms: _268  and  _269
REMARK  106  A    between atoms: _271  and  _273
REMARK  107  A    between atoms: _273  and  _274
REMARK  108  A    between atoms: _273  and  _276
REMARK  109  A    between atoms: _276  and  _277
REMARK  110  A    between atoms: _279  and  _281
REMARK  111  A    between atoms: _281  and  _282
REMARK  112  A    between atoms: _284  and  _286
REMARK  113  A    between atoms: _286  and  _287
REMARK  114  A    between atoms: _286  and  _289
REMARK  115  A    between atoms: _289  and  _290
REMARK  116  A    between atoms: _293  and  _295
REMARK  117  A    between atoms: _295  and  _296
REMARK  118  A    between atoms: _299  and  _301
REMARK  119  A    between atoms: _301  and  _302
REMARK  120  A    between atoms: _301  and  _304
REMARK  121  A    between atoms: _304  and  _305
REMARK  122  A    between atoms: _310  and  _311
REMARK  123  A    between atoms: _313  and  _315
REMARK  124  A    between atoms: _315  and  _316
REMARK  125  A    between atoms: _315  and  _318
REMARK  126  A    between atoms: _318  and  _319
REMARK  127  A    between atoms: _322  and  _324
REMARK  128  A    between atoms: _324  and  _325
REMARK  129  A    between atoms: _328  and  _330
REMARK  130  A    between atoms: _330  and  _331
REMARK  131  A    between atoms: _330  and  _333
REMARK  132  A    between atoms: _333  and  _334
REMARK  133  A    between atoms: _337  and  _339
REMARK  134  A    between atoms: _339  and  _340
REMARK  135  A    between atoms: _339  and  _342
REMARK  136  A    between atoms: _342  and  _343
REMARK  137  A    between atoms: _343  and  _344
REMARK  138  A    between atoms: _344  and  _345
REMARK  139  A    between atoms: _345  and  _346
REMARK  140  A    between atoms: _350  and  _352
REMARK  141  A    between atoms: _352  and  _353
REMARK  142  A    between atoms: _352  and  _355
REMARK  143  A    between atoms: _355  and  _356
REMARK  144  A    between atoms: _358  and  _360
REMARK  145  A    between atoms: _360  and  _361
REMARK  146  A    between atoms: _363  and  _365
REMARK  147  A    between atoms: _365  and  _366
REMARK  148  A    between atoms: _365  and  _368
REMARK  149  A    between atoms: _368  and  _369
REMARK  150  A    between atoms: _372  and  _374
REMARK  151  A    between atoms: _374  and  _375
REMARK  152  A    between atoms: _374  and  _377
REMARK  153  A    between atoms: _377  and  _378
REMARK  154  A    between atoms: _381  and  _383
REMARK  155  A    between atoms: _383  and  _384
REMARK  156  A    between atoms: _387  and  _389
REMARK  157  A    between atoms: _389  and  _390
REMARK  158  A    between atoms: _389  and  _392
REMARK  159  A    between atoms: _392  and  _393
REMARK  160  A    between atoms: _393  and  _394
REMARK  161  A    between atoms: _394  and  _395
REMARK  162  A    between atoms: _404  and  _406
REMARK  163  A    between atoms: _406  and  _407
REMARK  164  A    between atoms: _409  and  _411
REMARK  165  A    between atoms: _411  and  _412
REMARK  166  A    between atoms: _411  and  _414
REMARK  167  A    between atoms: _414  and  _415
REMARK  168  A    between atoms: _421  and  _423
REMARK  169  A    between atoms: _423  and  _424
REMARK  170  A    between atoms: _423  and  _426
REMARK  171  A    between atoms: _426  and  _427
REMARK  172  A    between atoms: _430  and  _432
REMARK  173  A    between atoms: _432  and  _433
REMARK  174  A    between atoms: _432  and  _435
REMARK  175  A    between atoms: _435  and  _436
REMARK  176  A    between atoms: _441  and  _443
REMARK  177  A    between atoms: _443  and  _444
REMARK  178  A    between atoms: _443  and  _446
REMARK  179  A    between atoms: _446  and  _447
REMARK  180  A    between atoms: _450  and  _452
REMARK  181  A    between atoms: _452  and  _453
REMARK  182  A    between atoms: _452  and  _455
REMARK  183  A    between atoms: _455  and  _456
REMARK  184  A    between atoms: _461  and  _462
REMARK  185  A    between atoms: _464  and  _466
REMARK  186  A    between atoms: _466  and  _467
REMARK  187  A    between atoms: _466  and  _469
REMARK  188  A    between atoms: _469  and  _470
REMARK  189  A    between atoms: _470  and  _471
REMARK  190  A    between atoms: _474  and  _476
REMARK  191  A    between atoms: _476  and  _477
REMARK  192  A    between atoms: _476  and  _479
REMARK  193  A    between atoms: _479  and  _480
REMARK  194  A    between atoms: _483  and  _485
REMARK  195  A    between atoms: _485  and  _486
REMARK  196  A    between atoms: _488  and  _490
REMARK  197  A    between atoms: _490  and  _491
REMARK  198  A    between atoms: _493  and  _495
REMARK  199  A    between atoms: _495  and  _496
REMARK  200  A    between atoms: _495  and  _498
REMARK  201  A    between atoms: _498  and  _499
REMARK  202  A    between atoms: _499  and  _500
REMARK  203  A    between atoms: _505  and  _507
REMARK  204  A    between atoms: _507  and  _508
REMARK  205  A    between atoms: _511  and  _513
REMARK  206  A    between atoms: _513  and  _514
REMARK  207  A    between atoms: _513  and  _516
REMARK  208  A    between atoms: _516  and  _517
REMARK  209  A    between atoms: _520  and  _522
REMARK  210  A    between atoms: _522  and  _523
REMARK  211  A    between atoms: _522  and  _525
REMARK  212  A    between atoms: _525  and  _526
REMARK  213  A    between atoms: _526  and  _527
REMARK  214  A    between atoms: _532  and  _534
REMARK  215  A    between atoms: _534  and  _535
REMARK  216  A    between atoms: _534  and  _537
REMARK  217  A    between atoms: _537  and  _538
REMARK  218  A    between atoms: _541  and  _543
REMARK  219  A    between atoms: _543  and  _544
REMARK  220  A    between atoms: _543  and  _546
REMARK  221  A    between atoms: _546  and  _547
REMARK  222  A    between atoms: _547  and  _548
REMARK  223  A    between atoms: _548  and  _549
REMARK                            x       y       z     vdW  Elec       q    Type
REMARK                         _______ _______ _______ _____ _____    ______ ____
ROOT
ATOM      1  O   HOH     1     -16.775  21.655 -12.956  0.00  0.00    +0.000 OA
ENDROOT
TORSDOF 0
REMARK  Name = ../refined-set-2016/4r74/4r74_pocket.pdb
REMARK  223 active torsions:
REMARK  status: ('A' for Active; 'I' for Inactive)
REMARK    1  A    between atoms: _1  and  _3
REMARK    2  A    between atoms: _3  and  _4
REMARK    3  A    between atoms: _3  and  _6
REMARK    4  A    between atoms: _6  and  _7
REMARK    5  A    between atoms: _9  and  _11
REMARK    6  A    between atoms: _11  and  _12
REMARK    7  A    between atoms: _15  and  _17
REMARK    8  A    between atoms: _17  and  _18
REMARK    9  A    between atoms: _17  and  _20
REMARK   10  A    between atoms: _20  and  _21
REMARK   11  A    between atoms: _24  and  _26
REMARK   12  A    between atoms: _26  and  _27
REMARK   13  A    between atoms: _26  and  _29
REMARK   14  A    between atoms: _29  and  _30
REMARK   15  A    between atoms: _35  and  _37
REMARK   16  A    between atoms: _37  and  _38
REMARK   17  A    between atoms: _37  and  _40
REMARK   18  A    between atoms: _40  and  _41
REMARK   19  A    between atoms: _41  and  _42
REMARK   20  A    between atoms: _44  and  _46
REMARK   21  A    between atoms: _46  and  _47
REMARK   22  A    between atoms: _46  and  _49
REMARK   23  A    between atoms: _49  and  _50
REMARK   24  A    between atoms: _50  and  _51
REMARK   25  A    between atoms: _51  and  _52
REMARK   26  A    between atoms: _61  and  _63
REMARK   27  A    between atoms: _63  and  _64
REMARK   28  A    between atoms: _63  and  _66
REMARK   29  A    between atoms: _66  and  _67
REMARK   30  A    between atoms: _72  and  _74
REMARK   31  A    between atoms: _74  and  _75
REMARK   32  A    between atoms: _77  and  _79
REMARK   33  A    between atoms: _79  and  _80
REMARK   34  A    between atoms: _79  and  _82
REMARK   35  A    between atoms: _82  and  _83
REMARK   36  A    between atoms: _85  and  _87
REMARK   37  A    between atoms: _87  and  _88
REMARK   38  A    between atoms: _90  and  _92
REMARK   39  A    between atoms: _92  and  _93
REMARK   40  A    between atoms: _92  and  _95
REMARK   41  A    between atoms: _95  and  _96
REMARK   42  A    between atoms: _98  and  _100
REMARK   43  A    between atoms: _100  and  _101
REMARK   44  A    between atoms: _100  and  _103
REMARK   45  A    between atoms: _103  and  _104
REMARK   46  A    between atoms: _107  and  _109
REMARK   47  A    between atoms: _109  and  _110
REMARK   48  A    between atoms: _109  and  _112
REMARK   49  A    between atoms: _112  and  _113
REMARK   50  A    between atoms: _119  and  _121
REMARK   51  A    between atoms: _121  and  _122
REMARK   52  A    between atoms: _121  and  _124
REMARK   53  A    between atoms: _124  and  _125
REMARK   54  A    between atoms: _135  and  _137
REMARK   55  A    between atoms: _137  and  _138
REMARK   56  A    between atoms: _137  and  _140
REMARK   57  A    between atoms: _140  and  _141
REMARK   58  A    between atoms: _146  and  _147
REMARK   59  A    between atoms: _149  and  _151
REMARK   60  A    between atoms: _151  and  _152
REMARK   61  A    between atoms: _154  and  _156
REMARK   62  A    between atoms: _156  and  _157
REMARK   63  A    between atoms: _159  and  _161
REMARK   64  A    between atoms: _161  and  _162
REMARK   65  A    between atoms: _161  and  _164
REMARK   66  A    between atoms: _164  and  _165
REMARK   67  A    between atoms: _168  and  _170
REMARK   68  A    between atoms: _170  and  _171
REMARK   69  A    between atoms: _170  and  _173
REMARK   70  A    between atoms: _173  and  _174
REMARK   71  A    between atoms: _178  and  _179
REMARK   72  A    between atoms: _184  and  _186
REMARK   73  A    between atoms: _186  and  _187
REMARK   74  A    between atoms: _186  and  _189
REMARK   75  A    between atoms: _189  and  _190
REMARK   76  A    between atoms: _190  and  _191
REMARK   77  A    between atoms: _196  and  _198
REMARK   78  A    between atoms: _198  and  _199
REMARK   79  A    between atoms: _198  and  _201
REMARK   80  A    between atoms: _204  and  _206
REMARK   81  A    between atoms: _206  and  _207
REMARK   82  A    between atoms: _206  and  _209
REMARK   83  A    between atoms: _209  and  _210
REMARK   84  A    between atoms: _215  and  _216
REMARK   85  A    between atoms: _218  and  _220
REMARK   86  A    between atoms: _220  and  _221
REMARK   87  A    between atoms: _220  and  _223
REMARK   88  A    between atoms: _223  and  _224
REMARK   89  A    between atoms: _227  and  _229
REMARK   90  A    between atoms: _229  and  _230
REMARK   91  A    between atoms: _232  and  _234
REMARK   92  A    between atoms: _234  and  _235
REMARK   93  A    between atoms: _234  and  _237
REMARK   94  A    between atoms: _237  and  _238
REMARK   95  A    between atoms: _241  and  _243
REMARK   96  A    between atoms: _243  and  _244
REMARK   97  A    between atoms: _247  and  _249
REMARK   98  A    between atoms: _249  and  _250
REMARK   99  A    between atoms: _249  and  _252
REMARK  100  A    between atoms: _252  and  _253
REMARK  101  A    between atoms: _257  and  _258
REMARK  102  A    between atoms: _263  and  _265
REMARK  103  A    between atoms: _265  and  _266
REMARK  104  A    between atoms: _265  and  _268
REMARK  105  A    between atoms: _268  and  _269
REMARK  106  A    between atoms: _271  and  _273
REMARK  107  A    between atoms: _273  and  _274
REMARK  108  A    between atoms: _273  and  _276
REMARK  109  A    between atoms: _276  and  _277
REMARK  110  A    between atoms: _279  and  _281
REMARK  111  A    between atoms: _281  and  _282
REMARK  112  A    between atoms: _284  and  _286
REMARK  113  A    between atoms: _286  and  _287
REMARK  114  A    between atoms: _286  and  _289
REMARK  115  A    between atoms: _289  and  _290
REMARK  116  A    between atoms: _293  and  _295
REMARK  117  A    between atoms: _295  and  _296
REMARK  118  A    between atoms: _299  and  _301
REMARK  119  A    between atoms: _301  and  _302
REMARK  120  A    between atoms: _301  and  _304
REMARK  121  A    between atoms: _304  and  _305
REMARK  122  A    between atoms: _310  and  _311
REMARK  123  A    between atoms: _313  and  _315
REMARK  124  A    between atoms: _315  and  _316
REMARK  125  A    between atoms: _315  and  _318
REMARK  126  A    between atoms: _318  and  _319
REMARK  127  A    between atoms: _322  and  _324
REMARK  128  A    between atoms: _324  and  _325
REMARK  129  A    between atoms: _328  and  _330
REMARK  130  A    between atoms: _330  and  _331
REMARK  131  A    between atoms: _330  and  _333
REMARK  132  A    between atoms: _333  and  _334
REMARK  133  A    between atoms: _337  and  _339
REMARK  134  A    between atoms: _339  and  _340
REMARK  135  A    between atoms: _339  and  _342
REMARK  136  A    between atoms: _342  and  _343
REMARK  137  A    between atoms: _343  and  _344
REMARK  138  A    between atoms: _344  and  _345
REMARK  139  A    between atoms: _345  and  _346
REMARK  140  A    between atoms: _350  and  _352
REMARK  141  A    between atoms: _352  and  _353
REMARK  142  A    between atoms: _352  and  _355
REMARK  143  A    between atoms: _355  and  _356
REMARK  144  A    between atoms: _358  and  _360
REMARK  145  A    between atoms: _360  and  _361
REMARK  146  A    between atoms: _363  and  _365
REMARK  147  A    between atoms: _365  and  _366
REMARK  148  A    between atoms: _365  and  _368
REMARK  149  A    between atoms: _368  and  _369
REMARK  150  A    between atoms: _372  and  _374
REMARK  151  A    between atoms: _374  and  _375
REMARK  152  A    between atoms: _374  and  _377
REMARK  153  A    between atoms: _377  and  _378
REMARK  154  A    between atoms: _381  and  _383
REMARK  155  A    between atoms: _383  and  _384
REMARK  156  A    between atoms: _387  and  _389
REMARK  157  A    between atoms: _389  and  _390
REMARK  158  A    between atoms: _389  and  _392
REMARK  159  A    between atoms: _392  and  _393
REMARK  160  A    between atoms: _393  and  _394
REMARK  161  A    between atoms: _394  and  _395
REMARK  162  A    between atoms: _404  and  _406
REMARK  163  A    between atoms: _406  and  _407
REMARK  164  A    between atoms: _409  and  _411
REMARK  165  A    between atoms: _411  and  _412
REMARK  166  A    between atoms: _411  and  _414
REMARK  167  A    between atoms: _414  and  _415
REMARK  168  A    between atoms: _421  and  _423
REMARK  169  A    between atoms: _423  and  _424
REMARK  170  A    between atoms: _423  and  _426
REMARK  171  A    between atoms: _426  and  _427
REMARK  172  A    between atoms: _430  and  _432
REMARK  173  A    between atoms: _432  and  _433
REMARK  174  A    between atoms: _432  and  _435
REMARK  175  A    between atoms: _435  and  _436
REMARK  176  A    between atoms: _441  and  _443
REMARK  177  A    between atoms: _443  and  _444
REMARK  178  A    between atoms: _443  and  _446
REMARK  179  A    between atoms: _446  and  _447
REMARK  180  A    between atoms: _450  and  _452
REMARK  181  A    between atoms: _452  and  _453
REMARK  182  A    between atoms: _452  and  _455
REMARK  183  A    between atoms: _455  and  _456
REMARK  184  A    between atoms: _461  and  _462
REMARK  185  A    between atoms: _464  and  _466
REMARK  186  A    between atoms: _466  and  _467
REMARK  187  A    between atoms: _466  and  _469
REMARK  188  A    between atoms: _469  and  _470
REMARK  189  A    between atoms: _470  and  _471
REMARK  190  A    between atoms: _474  and  _476
REMARK  191  A    between atoms: _476  and  _477
REMARK  192  A    between atoms: _476  and  _479
REMARK  193  A    between atoms: _479  and  _480
REMARK  194  A    between atoms: _483  and  _485
REMARK  195  A    between atoms: _485  and  _486
REMARK  196  A    between atoms: _488  and  _490
REMARK  197  A    between atoms: _490  and  _491
REMARK  198  A    between atoms: _493  and  _495
REMARK  199  A    between atoms: _495  and  _496
REMARK  200  A    between atoms: _495  and  _498
REMARK  201  A    between atoms: _498  and  _499
REMARK  202  A    between atoms: _499  and  _500
REMARK  203  A    between atoms: _505  and  _507
REMARK  204  A    between atoms: _507  and  _508
REMARK  205  A    between atoms: _511  and  _513
REMARK  206  A    between atoms: _513  and  _514
REMARK  207  A    between atoms: _513  and  _516
REMARK  208  A    between atoms: _516  and  _517
REMARK  209  A    between atoms: _520  and  _522
REMARK  210  A    between atoms: _522  and  _523
REMARK  211  A    between atoms: _522  and  _525
REMARK  212  A    between atoms: _525  and  _526
REMARK  213  A    between atoms: _526  and  _527
REMARK  214  A    between atoms: _532  and  _534
REMARK  215  A    between atoms: _534  and  _535
REMARK  216  A    between atoms: _534  and  _537
REMARK  217  A    between atoms: _537  and  _538
REMARK  218  A    between atoms: _541  and  _543
REMARK  219  A    between atoms: _543  and  _544
REMARK  220  A    between atoms: _543  and  _546
REMARK  221  A    between atoms: _546  and  _547
REMARK  222  A    between atoms: _547  and  _548
REMARK  223  A    between atoms: _548  and  _549
REMARK                            x       y       z     vdW  Elec       q    Type
REMARK                         _______ _______ _______ _____ _____    ______ ____
ROOT
ATOM      1  O   HOH     1      -3.479  16.886 -15.726  0.00  0.00    +0.000 OA
ENDROOT
TORSDOF 0
REMARK  Name = ../refined-set-2016/4r74/4r74_pocket.pdb
REMARK  223 active torsions:
REMARK  status: ('A' for Active; 'I' for Inactive)
REMARK    1  A    between atoms: _1  and  _3
REMARK    2  A    between atoms: _3  and  _4
REMARK    3  A    between atoms: _3  and  _6
REMARK    4  A    between atoms: _6  and  _7
REMARK    5  A    between atoms: _9  and  _11
REMARK    6  A    between atoms: _11  and  _12
REMARK    7  A    between atoms: _15  and  _17
REMARK    8  A    between atoms: _17  and  _18
REMARK    9  A    between atoms: _17  and  _20
REMARK   10  A    between atoms: _20  and  _21
REMARK   11  A    between atoms: _24  and  _26
REMARK   12  A    between atoms: _26  and  _27
REMARK   13  A    between atoms: _26  and  _29
REMARK   14  A    between atoms: _29  and  _30
REMARK   15  A    between atoms: _35  and  _37
REMARK   16  A    between atoms: _37  and  _38
REMARK   17  A    between atoms: _37  and  _40
REMARK   18  A    between atoms: _40  and  _41
REMARK   19  A    between atoms: _41  and  _42
REMARK   20  A    between atoms: _44  and  _46
REMARK   21  A    between atoms: _46  and  _47
REMARK   22  A    between atoms: _46  and  _49
REMARK   23  A    between atoms: _49  and  _50
REMARK   24  A    between atoms: _50  and  _51
REMARK   25  A    between atoms: _51  and  _52
REMARK   26  A    between atoms: _61  and  _63
REMARK   27  A    between atoms: _63  and  _64
REMARK   28  A    between atoms: _63  and  _66
REMARK   29  A    between atoms: _66  and  _67
REMARK   30  A    between atoms: _72  and  _74
REMARK   31  A    between atoms: _74  and  _75
REMARK   32  A    between atoms: _77  and  _79
REMARK   33  A    between atoms: _79  and  _80
REMARK   34  A    between atoms: _79  and  _82
REMARK   35  A    between atoms: _82  and  _83
REMARK   36  A    between atoms: _85  and  _87
REMARK   37  A    between atoms: _87  and  _88
REMARK   38  A    between atoms: _90  and  _92
REMARK   39  A    between atoms: _92  and  _93
REMARK   40  A    between atoms: _92  and  _95
REMARK   41  A    between atoms: _95  and  _96
REMARK   42  A    between atoms: _98  and  _100
REMARK   43  A    between atoms: _100  and  _101
REMARK   44  A    between atoms: _100  and  _103
REMARK   45  A    between atoms: _103  and  _104
REMARK   46  A    between atoms: _107  and  _109
REMARK   47  A    between atoms: _109  and  _110
REMARK   48  A    between atoms: _109  and  _112
REMARK   49  A    between atoms: _112  and  _113
REMARK   50  A    between atoms: _119  and  _121
REMARK   51  A    between atoms: _121  and  _122
REMARK   52  A    between atoms: _121  and  _124
REMARK   53  A    between atoms: _124  and  _125
REMARK   54  A    between atoms: _135  and  _137
REMARK   55  A    between atoms: _137  and  _138
REMARK   56  A    between atoms: _137  and  _140
REMARK   57  A    between atoms: _140  and  _141
REMARK   58  A    between atoms: _146  and  _147
REMARK   59  A    between atoms: _149  and  _151
REMARK   60  A    between atoms: _151  and  _152
REMARK   61  A    between atoms: _154  and  _156
REMARK   62  A    between atoms: _156  and  _157
REMARK   63  A    between atoms: _159  and  _161
REMARK   64  A    between atoms: _161  and  _162
REMARK   65  A    between atoms: _161  and  _164
REMARK   66  A    between atoms: _164  and  _165
REMARK   67  A    between atoms: _168  and  _170
REMARK   68  A    between atoms: _170  and  _171
REMARK   69  A    between atoms: _170  and  _173
REMARK   70  A    between atoms: _173  and  _174
REMARK   71  A    between atoms: _178  and  _179
REMARK   72  A    between atoms: _184  and  _186
REMARK   73  A    between atoms: _186  and  _187
REMARK   74  A    between atoms: _186  and  _189
REMARK   75  A    between atoms: _189  and  _190
REMARK   76  A    between atoms: _190  and  _191
REMARK   77  A    between atoms: _196  and  _198
REMARK   78  A    between atoms: _198  and  _199
REMARK   79  A    between atoms: _198  and  _201
REMARK   80  A    between atoms: _204  and  _206
REMARK   81  A    between atoms: _206  and  _207
REMARK   82  A    between atoms: _206  and  _209
REMARK   83  A    between atoms: _209  and  _210
REMARK   84  A    between atoms: _215  and  _216
REMARK   85  A    between atoms: _218  and  _220
REMARK   86  A    between atoms: _220  and  _221
REMARK   87  A    between atoms: _220  and  _223
REMARK   88  A    between atoms: _223  and  _224
REMARK   89  A    between atoms: _227  and  _229
REMARK   90  A    between atoms: _229  and  _230
REMARK   91  A    between atoms: _232  and  _234
REMARK   92  A    between atoms: _234  and  _235
REMARK   93  A    between atoms: _234  and  _237
REMARK   94  A    between atoms: _237  and  _238
REMARK   95  A    between atoms: _241  and  _243
REMARK   96  A    between atoms: _243  and  _244
REMARK   97  A    between atoms: _247  and  _249
REMARK   98  A    between atoms: _249  and  _250
REMARK   99  A    between atoms: _249  and  _252
REMARK  100  A    between atoms: _252  and  _253
REMARK  101  A    between atoms: _257  and  _258
REMARK  102  A    between atoms: _263  and  _265
REMARK  103  A    between atoms: _265  and  _266
REMARK  104  A    between atoms: _265  and  _268
REMARK  105  A    between atoms: _268  and  _269
REMARK  106  A    between atoms: _271  and  _273
REMARK  107  A    between atoms: _273  and  _274
REMARK  108  A    between atoms: _273  and  _276
REMARK  109  A    between atoms: _276  and  _277
REMARK  110  A    between atoms: _279  and  _281
REMARK  111  A    between atoms: _281  and  _282
REMARK  112  A    between atoms: _284  and  _286
REMARK  113  A    between atoms: _286  and  _287
REMARK  114  A    between atoms: _286  and  _289
REMARK  115  A    between atoms: _289  and  _290
REMARK  116  A    between atoms: _293  and  _295
REMARK  117  A    between atoms: _295  and  _296
REMARK  118  A    between atoms: _299  and  _301
REMARK  119  A    between atoms: _301  and  _302
REMARK  120  A    between atoms: _301  and  _304
REMARK  121  A    between atoms: _304  and  _305
REMARK  122  A    between atoms: _310  and  _311
REMARK  123  A    between atoms: _313  and  _315
REMARK  124  A    between atoms: _315  and  _316
REMARK  125  A    between atoms: _315  and  _318
REMARK  126  A    between atoms: _318  and  _319
REMARK  127  A    between atoms: _322  and  _324
REMARK  128  A    between atoms: _324  and  _325
REMARK  129  A    between atoms: _328  and  _330
REMARK  130  A    between atoms: _330  and  _331
REMARK  131  A    between atoms: _330  and  _333
REMARK  132  A    between atoms: _333  and  _334
REMARK  133  A    between atoms: _337  and  _339
REMARK  134  A    between atoms: _339  and  _340
REMARK  135  A    between atoms: _339  and  _342
REMARK  136  A    between atoms: _342  and  _343
REMARK  137  A    between atoms: _343  and  _344
REMARK  138  A    between atoms: _344  and  _345
REMARK  139  A    between atoms: _345  and  _346
REMARK  140  A    between atoms: _350  and  _352
REMARK  141  A    between atoms: _352  and  _353
REMARK  142  A    between atoms: _352  and  _355
REMARK  143  A    between atoms: _355  and  _356
REMARK  144  A    between atoms: _358  and  _360
REMARK  145  A    between atoms: _360  and  _361
REMARK  146  A    between atoms: _363  and  _365
REMARK  147  A    between atoms: _365  and  _366
REMARK  148  A    between atoms: _365  and  _368
REMARK  149  A    between atoms: _368  and  _369
REMARK  150  A    between atoms: _372  and  _374
REMARK  151  A    between atoms: _374  and  _375
REMARK  152  A    between atoms: _374  and  _377
REMARK  153  A    between atoms: _377  and  _378
REMARK  154  A    between atoms: _381  and  _383
REMARK  155  A    between atoms: _383  and  _384
REMARK  156  A    between atoms: _387  and  _389
REMARK  157  A    between atoms: _389  and  _390
REMARK  158  A    between atoms: _389  and  _392
REMARK  159  A    between atoms: _392  and  _393
REMARK  160  A    between atoms: _393  and  _394
REMARK  161  A    between atoms: _394  and  _395
REMARK  162  A    between atoms: _404  and  _406
REMARK  163  A    between atoms: _406  and  _407
REMARK  164  A    between atoms: _409  and  _411
REMARK  165  A    between atoms: _411  and  _412
REMARK  166  A    between atoms: _411  and  _414
REMARK  167  A    between atoms: _414  and  _415
REMARK  168  A    between atoms: _421  and  _423
REMARK  169  A    between atoms: _423  and  _424
REMARK  170  A    between atoms: _423  and  _426
REMARK  171  A    between atoms: _426  and  _427
REMARK  172  A    between atoms: _430  and  _432
REMARK  173  A    between atoms: _432  and  _433
REMARK  174  A    between atoms: _432  and  _435
REMARK  175  A    between atoms: _435  and  _436
REMARK  176  A    between atoms: _441  and  _443
REMARK  177  A    between atoms: _443  and  _444
REMARK  178  A    between atoms: _443  and  _446
REMARK  179  A    between atoms: _446  and  _447
REMARK  180  A    between atoms: _450  and  _452
REMARK  181  A    between atoms: _452  and  _453
REMARK  182  A    between atoms: _452  and  _455
REMARK  183  A    between atoms: _455  and  _456
REMARK  184  A    between atoms: _461  and  _462
REMARK  185  A    between atoms: _464  and  _466
REMARK  186  A    between atoms: _466  and  _467
REMARK  187  A    between atoms: _466  and  _469
REMARK  188  A    between atoms: _469  and  _470
REMARK  189  A    between atoms: _470  and  _471
REMARK  190  A    between atoms: _474  and  _476
REMARK  191  A    between atoms: _476  and  _477
REMARK  192  A    between atoms: _476  and  _479
REMARK  193  A    between atoms: _479  and  _480
REMARK  194  A    between atoms: _483  and  _485
REMARK  195  A    between atoms: _485  and  _486
REMARK  196  A    between atoms: _488  and  _490
REMARK  197  A    between atoms: _490  and  _491
REMARK  198  A    between atoms: _493  and  _495
REMARK  199  A    between atoms: _495  and  _496
REMARK  200  A    between atoms: _495  and  _498
REMARK  201  A    between atoms: _498  and  _499
REMARK  202  A    between atoms: _499  and  _500
REMARK  203  A    between atoms: _505  and  _507
REMARK  204  A    between atoms: _507  and  _508
REMARK  205  A    between atoms: _511  and  _513
REMARK  206  A    between atoms: _513  and  _514
REMARK  207  A    between atoms: _513  and  _516
REMARK  208  A    between atoms: _516  and  _517
REMARK  209  A    between atoms: _520  and  _522
REMARK  210  A    between atoms: _522  and  _523
REMARK  211  A    between atoms: _522  and  _525
REMARK  212  A    between atoms: _525  and  _526
REMARK  213  A    between atoms: _526  and  _527
REMARK  214  A    between atoms: _532  and  _534
REMARK  215  A    between atoms: _534  and  _535
REMARK  216  A    between atoms: _534  and  _537
REMARK  217  A    between atoms: _537  and  _538
REMARK  218  A    between atoms: _541  and  _543
REMARK  219  A    between atoms: _543  and  _544
REMARK  220  A    between atoms: _543  and  _546
REMARK  221  A    between atoms: _546  and  _547
REMARK  222  A    between atoms: _547  and  _548
REMARK  223  A    between atoms: _548  and  _549
REMARK                            x       y       z     vdW  Elec       q    Type
REMARK                         _______ _______ _______ _____ _____    ______ ____
ROOT
ATOM      1  O   HOH     1      -9.810  20.601 -12.808  0.00  0.00    +0.000 OA
ENDROOT
TORSDOF 0
REMARK  Name = ../refined-set-2016/4r74/4r74_pocket.pdb
REMARK  223 active torsions:
REMARK  status: ('A' for Active; 'I' for Inactive)
REMARK    1  A    between atoms: _1  and  _3
REMARK    2  A    between atoms: _3  and  _4
REMARK    3  A    between atoms: _3  and  _6
REMARK    4  A    between atoms: _6  and  _7
REMARK    5  A    between atoms: _9  and  _11
REMARK    6  A    between atoms: _11  and  _12
REMARK    7  A    between atoms: _15  and  _17
REMARK    8  A    between atoms: _17  and  _18
REMARK    9  A    between atoms: _17  and  _20
REMARK   10  A    between atoms: _20  and  _21
REMARK   11  A    between atoms: _24  and  _26
REMARK   12  A    between atoms: _26  and  _27
REMARK   13  A    between atoms: _26  and  _29
REMARK   14  A    between atoms: _29  and  _30
REMARK   15  A    between atoms: _35  and  _37
REMARK   16  A    between atoms: _37  and  _38
REMARK   17  A    between atoms: _37  and  _40
REMARK   18  A    between atoms: _40  and  _41
REMARK   19  A    between atoms: _41  and  _42
REMARK   20  A    between atoms: _44  and  _46
REMARK   21  A    between atoms: _46  and  _47
REMARK   22  A    between atoms: _46  and  _49
REMARK   23  A    between atoms: _49  and  _50
REMARK   24  A    between atoms: _50  and  _51
REMARK   25  A    between atoms: _51  and  _52
REMARK   26  A    between atoms: _61  and  _63
REMARK   27  A    between atoms: _63  and  _64
REMARK   28  A    between atoms: _63  and  _66
REMARK   29  A    between atoms: _66  and  _67
REMARK   30  A    between atoms: _72  and  _74
REMARK   31  A    between atoms: _74  and  _75
REMARK   32  A    between atoms: _77  and  _79
REMARK   33  A    between atoms: _79  and  _80
REMARK   34  A    between atoms: _79  and  _82
REMARK   35  A    between atoms: _82  and  _83
REMARK   36  A    between atoms: _85  and  _87
REMARK   37  A    between atoms: _87  and  _88
REMARK   38  A    between atoms: _90  and  _92
REMARK   39  A    between atoms: _92  and  _93
REMARK   40  A    between atoms: _92  and  _95
REMARK   41  A    between atoms: _95  and  _96
REMARK   42  A    between atoms: _98  and  _100
REMARK   43  A    between atoms: _100  and  _101
REMARK   44  A    between atoms: _100  and  _103
REMARK   45  A    between atoms: _103  and  _104
REMARK   46  A    between atoms: _107  and  _109
REMARK   47  A    between atoms: _109  and  _110
REMARK   48  A    between atoms: _109  and  _112
REMARK   49  A    between atoms: _112  and  _113
REMARK   50  A    between atoms: _119  and  _121
REMARK   51  A    between atoms: _121  and  _122
REMARK   52  A    between atoms: _121  and  _124
REMARK   53  A    between atoms: _124  and  _125
REMARK   54  A    between atoms: _135  and  _137
REMARK   55  A    between atoms: _137  and  _138
REMARK   56  A    between atoms: _137  and  _140
REMARK   57  A    between atoms: _140  and  _141
REMARK   58  A    between atoms: _146  and  _147
REMARK   59  A    between atoms: _149  and  _151
REMARK   60  A    between atoms: _151  and  _152
REMARK   61  A    between atoms: _154  and  _156
REMARK   62  A    between atoms: _156  and  _157
REMARK   63  A    between atoms: _159  and  _161
REMARK   64  A    between atoms: _161  and  _162
REMARK   65  A    between atoms: _161  and  _164
REMARK   66  A    between atoms: _164  and  _165
REMARK   67  A    between atoms: _168  and  _170
REMARK   68  A    between atoms: _170  and  _171
REMARK   69  A    between atoms: _170  and  _173
REMARK   70  A    between atoms: _173  and  _174
REMARK   71  A    between atoms: _178  and  _179
REMARK   72  A    between atoms: _184  and  _186
REMARK   73  A    between atoms: _186  and  _187
REMARK   74  A    between atoms: _186  and  _189
REMARK   75  A    between atoms: _189  and  _190
REMARK   76  A    between atoms: _190  and  _191
REMARK   77  A    between atoms: _196  and  _198
REMARK   78  A    between atoms: _198  and  _199
REMARK   79  A    between atoms: _198  and  _201
REMARK   80  A    between atoms: _204  and  _206
REMARK   81  A    between atoms: _206  and  _207
REMARK   82  A    between atoms: _206  and  _209
REMARK   83  A    between atoms: _209  and  _210
REMARK   84  A    between atoms: _215  and  _216
REMARK   85  A    between atoms: _218  and  _220
REMARK   86  A    between atoms: _220  and  _221
REMARK   87  A    between atoms: _220  and  _223
REMARK   88  A    between atoms: _223  and  _224
REMARK   89  A    between atoms: _227  and  _229
REMARK   90  A    between atoms: _229  and  _230
REMARK   91  A    between atoms: _232  and  _234
REMARK   92  A    between atoms: _234  and  _235
REMARK   93  A    between atoms: _234  and  _237
REMARK   94  A    between atoms: _237  and  _238
REMARK   95  A    between atoms: _241  and  _243
REMARK   96  A    between atoms: _243  and  _244
REMARK   97  A    between atoms: _247  and  _249
REMARK   98  A    between atoms: _249  and  _250
REMARK   99  A    between atoms: _249  and  _252
REMARK  100  A    between atoms: _252  and  _253
REMARK  101  A    between atoms: _257  and  _258
REMARK  102  A    between atoms: _263  and  _265
REMARK  103  A    between atoms: _265  and  _266
REMARK  104  A    between atoms: _265  and  _268
REMARK  105  A    between atoms: _268  and  _269
REMARK  106  A    between atoms: _271  and  _273
REMARK  107  A    between atoms: _273  and  _274
REMARK  108  A    between atoms: _273  and  _276
REMARK  109  A    between atoms: _276  and  _277
REMARK  110  A    between atoms: _279  and  _281
REMARK  111  A    between atoms: _281  and  _282
REMARK  112  A    between atoms: _284  and  _286
REMARK  113  A    between atoms: _286  and  _287
REMARK  114  A    between atoms: _286  and  _289
REMARK  115  A    between atoms: _289  and  _290
REMARK  116  A    between atoms: _293  and  _295
REMARK  117  A    between atoms: _295  and  _296
REMARK  118  A    between atoms: _299  and  _301
REMARK  119  A    between atoms: _301  and  _302
REMARK  120  A    between atoms: _301  and  _304
REMARK  121  A    between atoms: _304  and  _305
REMARK  122  A    between atoms: _310  and  _311
REMARK  123  A    between atoms: _313  and  _315
REMARK  124  A    between atoms: _315  and  _316
REMARK  125  A    between atoms: _315  and  _318
REMARK  126  A    between atoms: _318  and  _319
REMARK  127  A    between atoms: _322  and  _324
REMARK  128  A    between atoms: _324  and  _325
REMARK  129  A    between atoms: _328  and  _330
REMARK  130  A    between atoms: _330  and  _331
REMARK  131  A    between atoms: _330  and  _333
REMARK  132  A    between atoms: _333  and  _334
REMARK  133  A    between atoms: _337  and  _339
REMARK  134  A    between atoms: _339  and  _340
REMARK  135  A    between atoms: _339  and  _342
REMARK  136  A    between atoms: _342  and  _343
REMARK  137  A    between atoms: _343  and  _344
REMARK  138  A    between atoms: _344  and  _345
REMARK  139  A    between atoms: _345  and  _346
REMARK  140  A    between atoms: _350  and  _352
REMARK  141  A    between atoms: _352  and  _353
REMARK  142  A    between atoms: _352  and  _355
REMARK  143  A    between atoms: _355  and  _356
REMARK  144  A    between atoms: _358  and  _360
REMARK  145  A    between atoms: _360  and  _361
REMARK  146  A    between atoms: _363  and  _365
REMARK  147  A    between atoms: _365  and  _366
REMARK  148  A    between atoms: _365  and  _368
REMARK  149  A    between atoms: _368  and  _369
REMARK  150  A    between atoms: _372  and  _374
REMARK  151  A    between atoms: _374  and  _375
REMARK  152  A    between atoms: _374  and  _377
REMARK  153  A    between atoms: _377  and  _378
REMARK  154  A    between atoms: _381  and  _383
REMARK  155  A    between atoms: _383  and  _384
REMARK  156  A    between atoms: _387  and  _389
REMARK  157  A    between atoms: _389  and  _390
REMARK  158  A    between atoms: _389  and  _392
REMARK  159  A    between atoms: _392  and  _393
REMARK  160  A    between atoms: _393  and  _394
REMARK  161  A    between atoms: _394  and  _395
REMARK  162  A    between atoms: _404  and  _406
REMARK  163  A    between atoms: _406  and  _407
REMARK  164  A    between atoms: _409  and  _411
REMARK  165  A    between atoms: _411  and  _412
REMARK  166  A    between atoms: _411  and  _414
REMARK  167  A    between atoms: _414  and  _415
REMARK  168  A    between atoms: _421  and  _423
REMARK  169  A    between atoms: _423  and  _424
REMARK  170  A    between atoms: _423  and  _426
REMARK  171  A    between atoms: _426  and  _427
REMARK  172  A    between atoms: _430  and  _432
REMARK  173  A    between atoms: _432  and  _433
REMARK  174  A    between atoms: _432  and  _435
REMARK  175  A    between atoms: _435  and  _436
REMARK  176  A    between atoms: _441  and  _443
REMARK  177  A    between atoms: _443  and  _444
REMARK  178  A    between atoms: _443  and  _446
REMARK  179  A    between atoms: _446  and  _447
REMARK  180  A    between atoms: _450  and  _452
REMARK  181  A    between atoms: _452  and  _453
REMARK  182  A    between atoms: _452  and  _455
REMARK  183  A    between atoms: _455  and  _456
REMARK  184  A    between atoms: _461  and  _462
REMARK  185  A    between atoms: _464  and  _466
REMARK  186  A    between atoms: _466  and  _467
REMARK  187  A    between atoms: _466  and  _469
REMARK  188  A    between atoms: _469  and  _470
REMARK  189  A    between atoms: _470  and  _471
REMARK  190  A    between atoms: _474  and  _476
REMARK  191  A    between atoms: _476  and  _477
REMARK  192  A    between atoms: _476  and  _479
REMARK  193  A    between atoms: _479  and  _480
REMARK  194  A    between atoms: _483  and  _485
REMARK  195  A    between atoms: _485  and  _486
REMARK  196  A    between atoms: _488  and  _490
REMARK  197  A    between atoms: _490  and  _491
REMARK  198  A    between atoms: _493  and  _495
REMARK  199  A    between atoms: _495  and  _496
REMARK  200  A    between atoms: _495  and  _498
REMARK  201  A    between atoms: _498  and  _499
REMARK  202  A    between atoms: _499  and  _500
REMARK  203  A    between atoms: _505  and  _507
REMARK  204  A    between atoms: _507  and  _508
REMARK  205  A    between atoms: _511  and  _513
REMARK  206  A    between atoms: _513  and  _514
REMARK  207  A    between atoms: _513  and  _516
REMARK  208  A    between atoms: _516  and  _517
REMARK  209  A    between atoms: _520  and  _522
REMARK  210  A    between atoms: _522  and  _523
REMARK  211  A    between atoms: _522  and  _525
REMARK  212  A    between atoms: _525  and  _526
REMARK  213  A    between atoms: _526  and  _527
REMARK  214  A    between atoms: _532  and  _534
REMARK  215  A    between atoms: _534  and  _535
REMARK  216  A    between atoms: _534  and  _537
REMARK  217  A    between atoms: _537  and  _538
REMARK  218  A    between atoms: _541  and  _543
REMARK  219  A    between atoms: _543  and  _544
REMARK  220  A    between atoms: _543  and  _546
REMARK  221  A    between atoms: _546  and  _547
REMARK  222  A    between atoms: _547  and  _548
REMARK  223  A    between atoms: _548  and  _549
REMARK                            x       y       z     vdW  Elec       q    Type
REMARK                         _______ _______ _______ _____ _____    ______ ____
ROOT
ATOM      1  O   HOH     1     -11.307  19.587 -14.937  0.00  0.00    +0.000 OA
ENDROOT
TORSDOF 0
