REMARK  Name = ../refined-set-2016/2ihj/2ihj_pocket.pdb
REMARK  251 active torsions:
REMARK  status: ('A' for Active; 'I' for Inactive)
REMARK    1  A    between atoms: _1  and  _3
REMARK    2  A    between atoms: _3  and  _4
REMARK    3  A    between atoms: _3  and  _6
REMARK    4  A    between atoms: _6  and  _7
REMARK    5  A    between atoms: _11  and  _12
REMARK    6  A    between atoms: _17  and  _19
REMARK    7  A    between atoms: _19  and  _20
REMARK    8  A    between atoms: _23  and  _25
REMARK    9  A    between atoms: _25  and  _26
REMARK   10  A    between atoms: _25  and  _28
REMARK   11  A    between atoms: _28  and  _29
REMARK   12  A    between atoms: _31  and  _33
REMARK   13  A    between atoms: _33  and  _34
REMARK   14  A    between atoms: _33  and  _36
REMARK   15  A    between atoms: _36  and  _37
REMARK   16  A    between atoms: _41  and  _42
REMARK   17  A    between atoms: _47  and  _49
REMARK   18  A    between atoms: _49  and  _50
REMARK   19  A    between atoms: _49  and  _52
REMARK   20  A    between atoms: _52  and  _53
REMARK   21  A    between atoms: _56  and  _58
REMARK   22  A    between atoms: _58  and  _59
REMARK   23  A    between atoms: _58  and  _61
REMARK   24  A    between atoms: _61  and  _62
REMARK   25  A    between atoms: _62  and  _63
REMARK   26  A    between atoms: _63  and  _64
REMARK   27  A    between atoms: _73  and  _75
REMARK   28  A    between atoms: _75  and  _76
REMARK   29  A    between atoms: _75  and  _78
REMARK   30  A    between atoms: _78  and  _79
REMARK   31  A    between atoms: _85  and  _87
REMARK   32  A    between atoms: _87  and  _88
REMARK   33  A    between atoms: _87  and  _90
REMARK   34  A    between atoms: _90  and  _91
REMARK   35  A    between atoms: _96  and  _98
REMARK   36  A    between atoms: _98  and  _99
REMARK   37  A    between atoms: _102  and  _104
REMARK   38  A    between atoms: _104  and  _105
REMARK   39  A    between atoms: _104  and  _107
REMARK   40  A    between atoms: _107  and  _108
REMARK   41  A    between atoms: _113  and  _115
REMARK   42  A    between atoms: _115  and  _116
REMARK   43  A    between atoms: _115  and  _118
REMARK   44  A    between atoms: _118  and  _119
REMARK   45  A    between atoms: _122  and  _124
REMARK   46  A    between atoms: _124  and  _125
REMARK   47  A    between atoms: _124  and  _127
REMARK   48  A    between atoms: _127  and  _128
REMARK   49  A    between atoms: _131  and  _133
REMARK   50  A    between atoms: _133  and  _134
REMARK   51  A    between atoms: _136  and  _138
REMARK   52  A    between atoms: _138  and  _139
REMARK   53  A    between atoms: _138  and  _141
REMARK   54  A    between atoms: _141  and  _142
REMARK   55  A    between atoms: _144  and  _146
REMARK   56  A    between atoms: _146  and  _147
REMARK   57  A    between atoms: _146  and  _149
REMARK   58  A    between atoms: _149  and  _150
REMARK   59  A    between atoms: _150  and  _151
REMARK   60  A    between atoms: _153  and  _155
REMARK   61  A    between atoms: _155  and  _156
REMARK   62  A    between atoms: _155  and  _158
REMARK   63  A    between atoms: _158  and  _159
REMARK   64  A    between atoms: _159  and  _160
REMARK   65  A    between atoms: _163  and  _165
REMARK   66  A    between atoms: _165  and  _166
REMARK   67  A    between atoms: _165  and  _168
REMARK   68  A    between atoms: _168  and  _169
REMARK   69  A    between atoms: _174  and  _175
REMARK   70  A    between atoms: _177  and  _179
REMARK   71  A    between atoms: _179  and  _180
REMARK   72  A    between atoms: _179  and  _182
REMARK   73  A    between atoms: _185  and  _187
REMARK   74  A    between atoms: _187  and  _188
REMARK   75  A    between atoms: _187  and  _190
REMARK   76  A    between atoms: _190  and  _191
REMARK   77  A    between atoms: _194  and  _196
REMARK   78  A    between atoms: _196  and  _197
REMARK   79  A    between atoms: _196  and  _199
REMARK   80  A    between atoms: _199  and  _200
REMARK   81  A    between atoms: _200  and  _201
REMARK   82  A    between atoms: _201  and  _202
REMARK   83  A    between atoms: _202  and  _203
REMARK   84  A    between atoms: _207  and  _209
REMARK   85  A    between atoms: _209  and  _210
REMARK   86  A    between atoms: _209  and  _212
REMARK   87  A    between atoms: _212  and  _213
REMARK   88  A    between atoms: _216  and  _218
REMARK   89  A    between atoms: _218  and  _219
REMARK   90  A    between atoms: _218  and  _221
REMARK   91  A    between atoms: _221  and  _222
REMARK   92  A    between atoms: _222  and  _223
REMARK   93  A    between atoms: _225  and  _227
REMARK   94  A    between atoms: _227  and  _228
REMARK   95  A    between atoms: _227  and  _230
REMARK   96  A    between atoms: _230  and  _231
REMARK   97  A    between atoms: _241  and  _243
REMARK   98  A    between atoms: _243  and  _244
REMARK   99  A    between atoms: _243  and  _246
REMARK  100  A    between atoms: _246  and  _247
REMARK  101  A    between atoms: _250  and  _252
REMARK  102  A    between atoms: _252  and  _253
REMARK  103  A    between atoms: _252  and  _255
REMARK  104  A    between atoms: _255  and  _256
REMARK  105  A    between atoms: _262  and  _264
REMARK  106  A    between atoms: _264  and  _265
REMARK  107  A    between atoms: _264  and  _267
REMARK  108  A    between atoms: _267  and  _268
REMARK  109  A    between atoms: _271  and  _273
REMARK  110  A    between atoms: _273  and  _274
REMARK  111  A    between atoms: _276  and  _278
REMARK  112  A    between atoms: _278  and  _279
REMARK  113  A    between atoms: _278  and  _281
REMARK  114  A    between atoms: _281  and  _282
REMARK  115  A    between atoms: _285  and  _287
REMARK  116  A    between atoms: _287  and  _288
REMARK  117  A    between atoms: _287  and  _290
REMARK  118  A    between atoms: _290  and  _291
REMARK  119  A    between atoms: _294  and  _296
REMARK  120  A    between atoms: _296  and  _297
REMARK  121  A    between atoms: _296  and  _299
REMARK  122  A    between atoms: _299  and  _300
REMARK  123  A    between atoms: _303  and  _305
REMARK  124  A    between atoms: _305  and  _306
REMARK  125  A    between atoms: _305  and  _308
REMARK  126  A    between atoms: _308  and  _309
REMARK  127  A    between atoms: _319  and  _321
REMARK  128  A    between atoms: _321  and  _322
REMARK  129  A    between atoms: _321  and  _324
REMARK  130  A    between atoms: _324  and  _325
REMARK  131  A    between atoms: _325  and  _326
REMARK  132  A    between atoms: _329  and  _331
REMARK  133  A    between atoms: _331  and  _332
REMARK  134  A    between atoms: _331  and  _334
REMARK  135  A    between atoms: _334  and  _335
REMARK  136  A    between atoms: _335  and  _336
REMARK  137  A    between atoms: _336  and  _337
REMARK  138  A    between atoms: _346  and  _348
REMARK  139  A    between atoms: _348  and  _349
REMARK  140  A    between atoms: _348  and  _351
REMARK  141  A    between atoms: _351  and  _352
REMARK  142  A    between atoms: _357  and  _358
REMARK  143  A    between atoms: _360  and  _362
REMARK  144  A    between atoms: _362  and  _363
REMARK  145  A    between atoms: _362  and  _365
REMARK  146  A    between atoms: _365  and  _366
REMARK  147  A    between atoms: _366  and  _367
REMARK  148  A    between atoms: _372  and  _374
REMARK  149  A    between atoms: _374  and  _375
REMARK  150  A    between atoms: _374  and  _377
REMARK  151  A    between atoms: _377  and  _378
REMARK  152  A    between atoms: _384  and  _386
REMARK  153  A    between atoms: _386  and  _387
REMARK  154  A    between atoms: _386  and  _389
REMARK  155  A    between atoms: _389  and  _390
REMARK  156  A    between atoms: _390  and  _391
REMARK  157  A    between atoms: _391  and  _392
REMARK  158  A    between atoms: _392  and  _393
REMARK  159  A    between atoms: _397  and  _399
REMARK  160  A    between atoms: _399  and  _400
REMARK  161  A    between atoms: _402  and  _404
REMARK  162  A    between atoms: _404  and  _405
REMARK  163  A    between atoms: _404  and  _407
REMARK  164  A    between atoms: _407  and  _408
REMARK  165  A    between atoms: _414  and  _415
REMARK  166  A    between atoms: _420  and  _422
REMARK  167  A    between atoms: _422  and  _423
REMARK  168  A    between atoms: _422  and  _425
REMARK  169  A    between atoms: _425  and  _426
REMARK  170  A    between atoms: _426  and  _427
REMARK  171  A    between atoms: _427  and  _428
REMARK  172  A    between atoms: _437  and  _439
REMARK  173  A    between atoms: _439  and  _440
REMARK  174  A    between atoms: _442  and  _444
REMARK  175  A    between atoms: _444  and  _445
REMARK  176  A    between atoms: _444  and  _447
REMARK  177  A    between atoms: _447  and  _448
REMARK  178  A    between atoms: _453  and  _455
REMARK  179  A    between atoms: _455  and  _456
REMARK  180  A    between atoms: _455  and  _458
REMARK  181  A    between atoms: _458  and  _459
REMARK  182  A    between atoms: _463  and  _464
REMARK  183  A    between atoms: _469  and  _471
REMARK  184  A    between atoms: _471  and  _472
REMARK  185  A    between atoms: _475  and  _477
REMARK  186  A    between atoms: _477  and  _478
REMARK  187  A    between atoms: _477  and  _480
REMARK  188  A    between atoms: _480  and  _481
REMARK  189  A    between atoms: _486  and  _488
REMARK  190  A    between atoms: _488  and  _489
REMARK  191  A    between atoms: _488  and  _491
REMARK  192  A    between atoms: _491  and  _492
REMARK  193  A    between atoms: _495  and  _497
REMARK  194  A    between atoms: _497  and  _498
REMARK  195  A    between atoms: _497  and  _500
REMARK  196  A    between atoms: _500  and  _501
REMARK  197  A    between atoms: _503  and  _505
REMARK  198  A    between atoms: _505  and  _506
REMARK  199  A    between atoms: _505  and  _508
REMARK  200  A    between atoms: _508  and  _509
REMARK  201  A    between atoms: _515  and  _517
REMARK  202  A    between atoms: _517  and  _518
REMARK  203  A    between atoms: _517  and  _520
REMARK  204  A    between atoms: _520  and  _521
REMARK  205  A    between atoms: _521  and  _522
REMARK  206  A    between atoms: _525  and  _527
REMARK  207  A    between atoms: _527  and  _528
REMARK  208  A    between atoms: _527  and  _530
REMARK  209  A    between atoms: _533  and  _535
REMARK  210  A    between atoms: _535  and  _536
REMARK  211  A    between atoms: _535  and  _538
REMARK  212  A    between atoms: _538  and  _539
REMARK  213  A    between atoms: _542  and  _544
REMARK  214  A    between atoms: _544  and  _545
REMARK  215  A    between atoms: _544  and  _547
REMARK  216  A    between atoms: _550  and  _552
REMARK  217  A    between atoms: _552  and  _553
REMARK  218  A    between atoms: _556  and  _558
REMARK  219  A    between atoms: _558  and  _559
REMARK  220  A    between atoms: _558  and  _561
REMARK  221  A    between atoms: _561  and  _562
REMARK  222  A    between atoms: _564  and  _566
REMARK  223  A    between atoms: _566  and  _567
REMARK  224  A    between atoms: _566  and  _569
REMARK  225  A    between atoms: _569  and  _570
REMARK  226  A    between atoms: _572  and  _574
REMARK  227  A    between atoms: _574  and  _575
REMARK  228  A    between atoms: _574  and  _577
REMARK  229  A    between atoms: _577  and  _578
REMARK  230  A    between atoms: _581  and  _583
REMARK  231  A    between atoms: _583  and  _584
REMARK  232  A    between atoms: _583  and  _586
REMARK  233  A    between atoms: _586  and  _587
REMARK  234  A    between atoms: _592  and  _593
REMARK  235  A    between atoms: _595  and  _597
REMARK  236  A    between atoms: _597  and  _598
REMARK  237  A    between atoms: _597  and  _600
REMARK  238  A    between atoms: _600  and  _601
REMARK  239  A    between atoms: _607  and  _609
REMARK  240  A    between atoms: _609  and  _610
REMARK  241  A    between atoms: _609  and  _612
REMARK  242  A    between atoms: _612  and  _613
REMARK  243  A    between atoms: _615  and  _617
REMARK  244  A    between atoms: _617  and  _618
REMARK  245  A    between atoms: _617  and  _620
REMARK  246  A    between atoms: _620  and  _621
REMARK  247  A    between atoms: _624  and  _626
REMARK  248  A    between atoms: _626  and  _627
REMARK  249  A    between atoms: _626  and  _629
REMARK  250  A    between atoms: _629  and  _630
REMARK  251  A    between atoms: _635  and  _636
REMARK                            x       y       z     vdW  Elec       q    Type
REMARK                         _______ _______ _______ _____ _____    ______ ____
ROOT
ATOM      1  C   ALA A   3       8.123  -1.246   8.623  0.00  0.00    +0.241 C 
ATOM      2  O   ALA A   3       7.584  -2.062   9.376  0.00  0.00    -0.273 OA
ATOM      3  N   SER A   4       9.264  -1.511   7.976  0.00  0.00    -0.295 N 
ATOM      4  H   SER A   4       9.711  -0.761   7.412  0.00  0.00    +0.150 HD
ENDROOT
BRANCH   1   5
ATOM      5  CA  ALA A   3       7.476   0.139   8.392  0.00  0.00    +0.149 C 
ATOM      6  CB  ALA A   3       8.471   1.137   7.796  0.00  0.00    +0.031 C 
BRANCH   5   8
ATOM      7  C   PRO A   2       5.521   0.812   9.715  0.00  0.00    +0.241 C 
ATOM      8  N   ALA A   3       6.843   0.706   9.589  0.00  0.00    -0.297 N 
ATOM      9  H   ALA A   3       7.449   1.037  10.367  0.00  0.00    +0.150 HD
ATOM     10  O   PRO A   2       4.729   0.342   8.890  0.00  0.00    -0.273 OA
BRANCH   7  17
ATOM     11  C   ASP A   1       6.331   0.883  12.900  0.00  0.00    +0.242 C 
ATOM     12  O   ASP A   1       5.769  -0.222  12.944  0.00  0.00    -0.273 OA
ATOM     13  N   PRO A   2       5.956   1.848  12.022  0.00  0.00    -0.272 N 
ATOM     14  CD  PRO A   2       6.368   3.268  12.020  0.00  0.00    +0.094 C 
ATOM     15  CG  PRO A   2       5.689   3.838  10.786  0.00  0.00    +0.024 C 
ATOM     16  CB  PRO A   2       4.493   2.962  10.549  0.00  0.00    +0.031 C 
ATOM     17  CA  PRO A   2       4.977   1.562  10.955  0.00  0.00    +0.152 C 
BRANCH  11  18
ATOM     18  CA  ASP A   1       7.506   1.195  13.856  0.00  0.00    +0.156 C 
BRANCH  18  19
ATOM     19  N   ASP A   1       7.167   1.066  15.308  0.00  0.00    -0.238 NA
ATOM     20  H   ASP A   1       6.277   0.590  15.558  0.00  0.00    +0.142 HD
ENDBRANCH  18  19
BRANCH  18  21
ATOM     21  CB  ASP A   1       8.713   0.305  13.467  0.00  0.00    +0.140 C 
BRANCH  21  22
ATOM     22  CG  ASP A   1       9.121   0.455  11.980  0.00  0.00    +0.367 C 
ATOM     23  OD2 ASP A   1       8.988   1.563  11.415  0.00  0.00    -0.246 OA
ATOM     24  OD1 ASP A   1       9.586  -0.536  11.371  0.00  0.00    -0.246 OA
ENDBRANCH  21  22
ENDBRANCH  18  21
ENDBRANCH  11  18
ENDBRANCH   7  17
ENDBRANCH   5   8
ENDBRANCH   1   5
BRANCH   3  25
ATOM     25  CA  SER A   4       9.904  -2.835   8.041  0.00  0.00    +0.178 C 
BRANCH  25  26
ATOM     26  C   SER A   4      11.247  -2.861   8.756  0.00  0.00    +0.243 C 
ATOM     27  O   SER A   4      11.467  -3.683   9.656  0.00  0.00    -0.273 OA
ATOM     28  N   LEU A   5      12.153  -1.980   8.333  0.00  0.00    -0.297 N 
ATOM     29  H   LEU A   5      11.855  -1.229   7.679  0.00  0.00    +0.150 HD
BRANCH  28  30
ATOM     30  CA  LEU A   5      13.554  -2.032   8.757  0.00  0.00    +0.149 C 
BRANCH  30  31
ATOM     31  C   LEU A   5      13.797  -1.727  10.261  0.00  0.00    +0.244 C 
ATOM     32  O   LEU A   5      14.535  -2.470  10.913  0.00  0.00    -0.273 OA
ATOM     33  N   PRO A   6      13.190  -0.644  10.817  0.00  0.00    -0.273 N 
ATOM     34  CA  PRO A   6      13.308  -0.461  12.278  0.00  0.00    +0.140 C 
ATOM     35  CB  PRO A   6      12.514   0.829  12.546  0.00  0.00    +0.030 C 
ATOM     36  CG  PRO A   6      12.505   1.552  11.233  0.00  0.00    +0.024 C 
ATOM     37  CD  PRO A   6      12.434   0.461  10.194  0.00  0.00    +0.094 C 
BRANCH  34  38
ATOM     38  C   PRO A   6      12.741  -1.638  13.102  0.00  0.00    +0.227 C 
ATOM     39  O   PRO A   6      13.358  -2.047  14.089  0.00  0.00    -0.286 OA
ENDBRANCH  34  38
ENDBRANCH  30  31
BRANCH  30  40
ATOM     40  CB  LEU A   5      14.415  -1.160   7.827  0.00  0.00    +0.029 C 
BRANCH  40  41
ATOM     41  CG  LEU A   5      15.842  -1.556   7.446  0.00  0.00    +0.002 C 
ATOM     42  CD2 LEU A   5      15.936  -2.955   6.825  0.00  0.00    +0.000 C 
ATOM     43  CD1 LEU A   5      16.418  -0.511   6.490  0.00  0.00    +0.000 C 
ENDBRANCH  40  41
ENDBRANCH  30  40
ENDBRANCH  28  30
ENDBRANCH  25  26
BRANCH  25  44
ATOM     44  CB  SER A   4      10.092  -3.428   6.637  0.00  0.00    +0.166 C 
BRANCH  44  45
ATOM     45  OG  SER A   4       8.868  -3.848   6.075  0.00  0.00    -0.380 OA
ATOM     46  H   SER A   4       9.032  -4.223   5.173  0.00  0.00    +0.211 HD
ENDBRANCH  44  45
ENDBRANCH  25  44
ENDBRANCH   3  25
TORSDOF 16
REMARK  Name = ../refined-set-2016/2ihj/2ihj_pocket.pdb
REMARK  251 active torsions:
REMARK  status: ('A' for Active; 'I' for Inactive)
REMARK    1  A    between atoms: _1  and  _3
REMARK    2  A    between atoms: _3  and  _4
REMARK    3  A    between atoms: _3  and  _6
REMARK    4  A    between atoms: _6  and  _7
REMARK    5  A    between atoms: _11  and  _12
REMARK    6  A    between atoms: _17  and  _19
REMARK    7  A    between atoms: _19  and  _20
REMARK    8  A    between atoms: _23  and  _25
REMARK    9  A    between atoms: _25  and  _26
REMARK   10  A    between atoms: _25  and  _28
REMARK   11  A    between atoms: _28  and  _29
REMARK   12  A    between atoms: _31  and  _33
REMARK   13  A    between atoms: _33  and  _34
REMARK   14  A    between atoms: _33  and  _36
REMARK   15  A    between atoms: _36  and  _37
REMARK   16  A    between atoms: _41  and  _42
REMARK   17  A    between atoms: _47  and  _49
REMARK   18  A    between atoms: _49  and  _50
REMARK   19  A    between atoms: _49  and  _52
REMARK   20  A    between atoms: _52  and  _53
REMARK   21  A    between atoms: _56  and  _58
REMARK   22  A    between atoms: _58  and  _59
REMARK   23  A    between atoms: _58  and  _61
REMARK   24  A    between atoms: _61  and  _62
REMARK   25  A    between atoms: _62  and  _63
REMARK   26  A    between atoms: _63  and  _64
REMARK   27  A    between atoms: _73  and  _75
REMARK   28  A    between atoms: _75  and  _76
REMARK   29  A    between atoms: _75  and  _78
REMARK   30  A    between atoms: _78  and  _79
REMARK   31  A    between atoms: _85  and  _87
REMARK   32  A    between atoms: _87  and  _88
REMARK   33  A    between atoms: _87  and  _90
REMARK   34  A    between atoms: _90  and  _91
REMARK   35  A    between atoms: _96  and  _98
REMARK   36  A    between atoms: _98  and  _99
REMARK   37  A    between atoms: _102  and  _104
REMARK   38  A    between atoms: _104  and  _105
REMARK   39  A    between atoms: _104  and  _107
REMARK   40  A    between atoms: _107  and  _108
REMARK   41  A    between atoms: _113  and  _115
REMARK   42  A    between atoms: _115  and  _116
REMARK   43  A    between atoms: _115  and  _118
REMARK   44  A    between atoms: _118  and  _119
REMARK   45  A    between atoms: _122  and  _124
REMARK   46  A    between atoms: _124  and  _125
REMARK   47  A    between atoms: _124  and  _127
REMARK   48  A    between atoms: _127  and  _128
REMARK   49  A    between atoms: _131  and  _133
REMARK   50  A    between atoms: _133  and  _134
REMARK   51  A    between atoms: _136  and  _138
REMARK   52  A    between atoms: _138  and  _139
REMARK   53  A    between atoms: _138  and  _141
REMARK   54  A    between atoms: _141  and  _142
REMARK   55  A    between atoms: _144  and  _146
REMARK   56  A    between atoms: _146  and  _147
REMARK   57  A    between atoms: _146  and  _149
REMARK   58  A    between atoms: _149  and  _150
REMARK   59  A    between atoms: _150  and  _151
REMARK   60  A    between atoms: _153  and  _155
REMARK   61  A    between atoms: _155  and  _156
REMARK   62  A    between atoms: _155  and  _158
REMARK   63  A    between atoms: _158  and  _159
REMARK   64  A    between atoms: _159  and  _160
REMARK   65  A    between atoms: _163  and  _165
REMARK   66  A    between atoms: _165  and  _166
REMARK   67  A    between atoms: _165  and  _168
REMARK   68  A    between atoms: _168  and  _169
REMARK   69  A    between atoms: _174  and  _175
REMARK   70  A    between atoms: _177  and  _179
REMARK   71  A    between atoms: _179  and  _180
REMARK   72  A    between atoms: _179  and  _182
REMARK   73  A    between atoms: _185  and  _187
REMARK   74  A    between atoms: _187  and  _188
REMARK   75  A    between atoms: _187  and  _190
REMARK   76  A    between atoms: _190  and  _191
REMARK   77  A    between atoms: _194  and  _196
REMARK   78  A    between atoms: _196  and  _197
REMARK   79  A    between atoms: _196  and  _199
REMARK   80  A    between atoms: _199  and  _200
REMARK   81  A    between atoms: _200  and  _201
REMARK   82  A    between atoms: _201  and  _202
REMARK   83  A    between atoms: _202  and  _203
REMARK   84  A    between atoms: _207  and  _209
REMARK   85  A    between atoms: _209  and  _210
REMARK   86  A    between atoms: _209  and  _212
REMARK   87  A    between atoms: _212  and  _213
REMARK   88  A    between atoms: _216  and  _218
REMARK   89  A    between atoms: _218  and  _219
REMARK   90  A    between atoms: _218  and  _221
REMARK   91  A    between atoms: _221  and  _222
REMARK   92  A    between atoms: _222  and  _223
REMARK   93  A    between atoms: _225  and  _227
REMARK   94  A    between atoms: _227  and  _228
REMARK   95  A    between atoms: _227  and  _230
REMARK   96  A    between atoms: _230  and  _231
REMARK   97  A    between atoms: _241  and  _243
REMARK   98  A    between atoms: _243  and  _244
REMARK   99  A    between atoms: _243  and  _246
REMARK  100  A    between atoms: _246  and  _247
REMARK  101  A    between atoms: _250  and  _252
REMARK  102  A    between atoms: _252  and  _253
REMARK  103  A    between atoms: _252  and  _255
REMARK  104  A    between atoms: _255  and  _256
REMARK  105  A    between atoms: _262  and  _264
REMARK  106  A    between atoms: _264  and  _265
REMARK  107  A    between atoms: _264  and  _267
REMARK  108  A    between atoms: _267  and  _268
REMARK  109  A    between atoms: _271  and  _273
REMARK  110  A    between atoms: _273  and  _274
REMARK  111  A    between atoms: _276  and  _278
REMARK  112  A    between atoms: _278  and  _279
REMARK  113  A    between atoms: _278  and  _281
REMARK  114  A    between atoms: _281  and  _282
REMARK  115  A    between atoms: _285  and  _287
REMARK  116  A    between atoms: _287  and  _288
REMARK  117  A    between atoms: _287  and  _290
REMARK  118  A    between atoms: _290  and  _291
REMARK  119  A    between atoms: _294  and  _296
REMARK  120  A    between atoms: _296  and  _297
REMARK  121  A    between atoms: _296  and  _299
REMARK  122  A    between atoms: _299  and  _300
REMARK  123  A    between atoms: _303  and  _305
REMARK  124  A    between atoms: _305  and  _306
REMARK  125  A    between atoms: _305  and  _308
REMARK  126  A    between atoms: _308  and  _309
REMARK  127  A    between atoms: _319  and  _321
REMARK  128  A    between atoms: _321  and  _322
REMARK  129  A    between atoms: _321  and  _324
REMARK  130  A    between atoms: _324  and  _325
REMARK  131  A    between atoms: _325  and  _326
REMARK  132  A    between atoms: _329  and  _331
REMARK  133  A    between atoms: _331  and  _332
REMARK  134  A    between atoms: _331  and  _334
REMARK  135  A    between atoms: _334  and  _335
REMARK  136  A    between atoms: _335  and  _336
REMARK  137  A    between atoms: _336  and  _337
REMARK  138  A    between atoms: _346  and  _348
REMARK  139  A    between atoms: _348  and  _349
REMARK  140  A    between atoms: _348  and  _351
REMARK  141  A    between atoms: _351  and  _352
REMARK  142  A    between atoms: _357  and  _358
REMARK  143  A    between atoms: _360  and  _362
REMARK  144  A    between atoms: _362  and  _363
REMARK  145  A    between atoms: _362  and  _365
REMARK  146  A    between atoms: _365  and  _366
REMARK  147  A    between atoms: _366  and  _367
REMARK  148  A    between atoms: _372  and  _374
REMARK  149  A    between atoms: _374  and  _375
REMARK  150  A    between atoms: _374  and  _377
REMARK  151  A    between atoms: _377  and  _378
REMARK  152  A    between atoms: _384  and  _386
REMARK  153  A    between atoms: _386  and  _387
REMARK  154  A    between atoms: _386  and  _389
REMARK  155  A    between atoms: _389  and  _390
REMARK  156  A    between atoms: _390  and  _391
REMARK  157  A    between atoms: _391  and  _392
REMARK  158  A    between atoms: _392  and  _393
REMARK  159  A    between atoms: _397  and  _399
REMARK  160  A    between atoms: _399  and  _400
REMARK  161  A    between atoms: _402  and  _404
REMARK  162  A    between atoms: _404  and  _405
REMARK  163  A    between atoms: _404  and  _407
REMARK  164  A    between atoms: _407  and  _408
REMARK  165  A    between atoms: _414  and  _415
REMARK  166  A    between atoms: _420  and  _422
REMARK  167  A    between atoms: _422  and  _423
REMARK  168  A    between atoms: _422  and  _425
REMARK  169  A    between atoms: _425  and  _426
REMARK  170  A    between atoms: _426  and  _427
REMARK  171  A    between atoms: _427  and  _428
REMARK  172  A    between atoms: _437  and  _439
REMARK  173  A    between atoms: _439  and  _440
REMARK  174  A    between atoms: _442  and  _444
REMARK  175  A    between atoms: _444  and  _445
REMARK  176  A    between atoms: _444  and  _447
REMARK  177  A    between atoms: _447  and  _448
REMARK  178  A    between atoms: _453  and  _455
REMARK  179  A    between atoms: _455  and  _456
REMARK  180  A    between atoms: _455  and  _458
REMARK  181  A    between atoms: _458  and  _459
REMARK  182  A    between atoms: _463  and  _464
REMARK  183  A    between atoms: _469  and  _471
REMARK  184  A    between atoms: _471  and  _472
REMARK  185  A    between atoms: _475  and  _477
REMARK  186  A    between atoms: _477  and  _478
REMARK  187  A    between atoms: _477  and  _480
REMARK  188  A    between atoms: _480  and  _481
REMARK  189  A    between atoms: _486  and  _488
REMARK  190  A    between atoms: _488  and  _489
REMARK  191  A    between atoms: _488  and  _491
REMARK  192  A    between atoms: _491  and  _492
REMARK  193  A    between atoms: _495  and  _497
REMARK  194  A    between atoms: _497  and  _498
REMARK  195  A    between atoms: _497  and  _500
REMARK  196  A    between atoms: _500  and  _501
REMARK  197  A    between atoms: _503  and  _505
REMARK  198  A    between atoms: _505  and  _506
REMARK  199  A    between atoms: _505  and  _508
REMARK  200  A    between atoms: _508  and  _509
REMARK  201  A    between atoms: _515  and  _517
REMARK  202  A    between atoms: _517  and  _518
REMARK  203  A    between atoms: _517  and  _520
REMARK  204  A    between atoms: _520  and  _521
REMARK  205  A    between atoms: _521  and  _522
REMARK  206  A    between atoms: _525  and  _527
REMARK  207  A    between atoms: _527  and  _528
REMARK  208  A    between atoms: _527  and  _530
REMARK  209  A    between atoms: _533  and  _535
REMARK  210  A    between atoms: _535  and  _536
REMARK  211  A    between atoms: _535  and  _538
REMARK  212  A    between atoms: _538  and  _539
REMARK  213  A    between atoms: _542  and  _544
REMARK  214  A    between atoms: _544  and  _545
REMARK  215  A    between atoms: _544  and  _547
REMARK  216  A    between atoms: _550  and  _552
REMARK  217  A    between atoms: _552  and  _553
REMARK  218  A    between atoms: _556  and  _558
REMARK  219  A    between atoms: _558  and  _559
REMARK  220  A    between atoms: _558  and  _561
REMARK  221  A    between atoms: _561  and  _562
REMARK  222  A    between atoms: _564  and  _566
REMARK  223  A    between atoms: _566  and  _567
REMARK  224  A    between atoms: _566  and  _569
REMARK  225  A    between atoms: _569  and  _570
REMARK  226  A    between atoms: _572  and  _574
REMARK  227  A    between atoms: _574  and  _575
REMARK  228  A    between atoms: _574  and  _577
REMARK  229  A    between atoms: _577  and  _578
REMARK  230  A    between atoms: _581  and  _583
REMARK  231  A    between atoms: _583  and  _584
REMARK  232  A    between atoms: _583  and  _586
REMARK  233  A    between atoms: _586  and  _587
REMARK  234  A    between atoms: _592  and  _593
REMARK  235  A    between atoms: _595  and  _597
REMARK  236  A    between atoms: _597  and  _598
REMARK  237  A    between atoms: _597  and  _600
REMARK  238  A    between atoms: _600  and  _601
REMARK  239  A    between atoms: _607  and  _609
REMARK  240  A    between atoms: _609  and  _610
REMARK  241  A    between atoms: _609  and  _612
REMARK  242  A    between atoms: _612  and  _613
REMARK  243  A    between atoms: _615  and  _617
REMARK  244  A    between atoms: _617  and  _618
REMARK  245  A    between atoms: _617  and  _620
REMARK  246  A    between atoms: _620  and  _621
REMARK  247  A    between atoms: _624  and  _626
REMARK  248  A    between atoms: _626  and  _627
REMARK  249  A    between atoms: _626  and  _629
REMARK  250  A    between atoms: _629  and  _630
REMARK  251  A    between atoms: _635  and  _636
REMARK                            x       y       z     vdW  Elec       q    Type
REMARK                         _______ _______ _______ _____ _____    ______ ____
ROOT
ATOM      1  CA  LEU A   1      13.523  -5.908  12.164  0.00  0.00    +0.133 C 
ENDROOT
BRANCH   1   2
ATOM      2  N   LEU A   1      12.595  -4.778  12.284  0.00  0.00    -0.239 NA
ATOM      3  H   LEU A   1      12.488  -4.130  11.478  0.00  0.00    +0.142 HD
ENDBRANCH   1   2
BRANCH   1   4
ATOM      4  C   LEU A   1      14.651  -5.812  13.202  0.00  0.00    +0.224 C 
ATOM      5  O   LEU A   1      14.976  -6.795  13.870  0.00  0.00    -0.287 OA
ENDBRANCH   1   4
BRANCH   1   6
ATOM      6  CB  LEU A   1      14.077  -5.978  10.732  0.00  0.00    +0.025 C 
BRANCH   6   7
ATOM      7  CG  LEU A   1      14.575  -7.275  10.098  0.00  0.00    +0.002 C 
ATOM      8  CD2 LEU A   1      13.469  -8.311  10.004  0.00  0.00    +0.000 C 
ATOM      9  CD1 LEU A   1      15.154  -6.976   8.703  0.00  0.00    +0.000 C 
ENDBRANCH   6   7
ENDBRANCH   1   6
TORSDOF 4
REMARK  Name = ../refined-set-2016/2ihj/2ihj_pocket.pdb
REMARK  251 active torsions:
REMARK  status: ('A' for Active; 'I' for Inactive)
REMARK    1  A    between atoms: _1  and  _3
REMARK    2  A    between atoms: _3  and  _4
REMARK    3  A    between atoms: _3  and  _6
REMARK    4  A    between atoms: _6  and  _7
REMARK    5  A    between atoms: _11  and  _12
REMARK    6  A    between atoms: _17  and  _19
REMARK    7  A    between atoms: _19  and  _20
REMARK    8  A    between atoms: _23  and  _25
REMARK    9  A    between atoms: _25  and  _26
REMARK   10  A    between atoms: _25  and  _28
REMARK   11  A    between atoms: _28  and  _29
REMARK   12  A    between atoms: _31  and  _33
REMARK   13  A    between atoms: _33  and  _34
REMARK   14  A    between atoms: _33  and  _36
REMARK   15  A    between atoms: _36  and  _37
REMARK   16  A    between atoms: _41  and  _42
REMARK   17  A    between atoms: _47  and  _49
REMARK   18  A    between atoms: _49  and  _50
REMARK   19  A    between atoms: _49  and  _52
REMARK   20  A    between atoms: _52  and  _53
REMARK   21  A    between atoms: _56  and  _58
REMARK   22  A    between atoms: _58  and  _59
REMARK   23  A    between atoms: _58  and  _61
REMARK   24  A    between atoms: _61  and  _62
REMARK   25  A    between atoms: _62  and  _63
REMARK   26  A    between atoms: _63  and  _64
REMARK   27  A    between atoms: _73  and  _75
REMARK   28  A    between atoms: _75  and  _76
REMARK   29  A    between atoms: _75  and  _78
REMARK   30  A    between atoms: _78  and  _79
REMARK   31  A    between atoms: _85  and  _87
REMARK   32  A    between atoms: _87  and  _88
REMARK   33  A    between atoms: _87  and  _90
REMARK   34  A    between atoms: _90  and  _91
REMARK   35  A    between atoms: _96  and  _98
REMARK   36  A    between atoms: _98  and  _99
REMARK   37  A    between atoms: _102  and  _104
REMARK   38  A    between atoms: _104  and  _105
REMARK   39  A    between atoms: _104  and  _107
REMARK   40  A    between atoms: _107  and  _108
REMARK   41  A    between atoms: _113  and  _115
REMARK   42  A    between atoms: _115  and  _116
REMARK   43  A    between atoms: _115  and  _118
REMARK   44  A    between atoms: _118  and  _119
REMARK   45  A    between atoms: _122  and  _124
REMARK   46  A    between atoms: _124  and  _125
REMARK   47  A    between atoms: _124  and  _127
REMARK   48  A    between atoms: _127  and  _128
REMARK   49  A    between atoms: _131  and  _133
REMARK   50  A    between atoms: _133  and  _134
REMARK   51  A    between atoms: _136  and  _138
REMARK   52  A    between atoms: _138  and  _139
REMARK   53  A    between atoms: _138  and  _141
REMARK   54  A    between atoms: _141  and  _142
REMARK   55  A    between atoms: _144  and  _146
REMARK   56  A    between atoms: _146  and  _147
REMARK   57  A    between atoms: _146  and  _149
REMARK   58  A    between atoms: _149  and  _150
REMARK   59  A    between atoms: _150  and  _151
REMARK   60  A    between atoms: _153  and  _155
REMARK   61  A    between atoms: _155  and  _156
REMARK   62  A    between atoms: _155  and  _158
REMARK   63  A    between atoms: _158  and  _159
REMARK   64  A    between atoms: _159  and  _160
REMARK   65  A    between atoms: _163  and  _165
REMARK   66  A    between atoms: _165  and  _166
REMARK   67  A    between atoms: _165  and  _168
REMARK   68  A    between atoms: _168  and  _169
REMARK   69  A    between atoms: _174  and  _175
REMARK   70  A    between atoms: _177  and  _179
REMARK   71  A    between atoms: _179  and  _180
REMARK   72  A    between atoms: _179  and  _182
REMARK   73  A    between atoms: _185  and  _187
REMARK   74  A    between atoms: _187  and  _188
REMARK   75  A    between atoms: _187  and  _190
REMARK   76  A    between atoms: _190  and  _191
REMARK   77  A    between atoms: _194  and  _196
REMARK   78  A    between atoms: _196  and  _197
REMARK   79  A    between atoms: _196  and  _199
REMARK   80  A    between atoms: _199  and  _200
REMARK   81  A    between atoms: _200  and  _201
REMARK   82  A    between atoms: _201  and  _202
REMARK   83  A    between atoms: _202  and  _203
REMARK   84  A    between atoms: _207  and  _209
REMARK   85  A    between atoms: _209  and  _210
REMARK   86  A    between atoms: _209  and  _212
REMARK   87  A    between atoms: _212  and  _213
REMARK   88  A    between atoms: _216  and  _218
REMARK   89  A    between atoms: _218  and  _219
REMARK   90  A    between atoms: _218  and  _221
REMARK   91  A    between atoms: _221  and  _222
REMARK   92  A    between atoms: _222  and  _223
REMARK   93  A    between atoms: _225  and  _227
REMARK   94  A    between atoms: _227  and  _228
REMARK   95  A    between atoms: _227  and  _230
REMARK   96  A    between atoms: _230  and  _231
REMARK   97  A    between atoms: _241  and  _243
REMARK   98  A    between atoms: _243  and  _244
REMARK   99  A    between atoms: _243  and  _246
REMARK  100  A    between atoms: _246  and  _247
REMARK  101  A    between atoms: _250  and  _252
REMARK  102  A    between atoms: _252  and  _253
REMARK  103  A    between atoms: _252  and  _255
REMARK  104  A    between atoms: _255  and  _256
REMARK  105  A    between atoms: _262  and  _264
REMARK  106  A    between atoms: _264  and  _265
REMARK  107  A    between atoms: _264  and  _267
REMARK  108  A    between atoms: _267  and  _268
REMARK  109  A    between atoms: _271  and  _273
REMARK  110  A    between atoms: _273  and  _274
REMARK  111  A    between atoms: _276  and  _278
REMARK  112  A    between atoms: _278  and  _279
REMARK  113  A    between atoms: _278  and  _281
REMARK  114  A    between atoms: _281  and  _282
REMARK  115  A    between atoms: _285  and  _287
REMARK  116  A    between atoms: _287  and  _288
REMARK  117  A    between atoms: _287  and  _290
REMARK  118  A    between atoms: _290  and  _291
REMARK  119  A    between atoms: _294  and  _296
REMARK  120  A    between atoms: _296  and  _297
REMARK  121  A    between atoms: _296  and  _299
REMARK  122  A    between atoms: _299  and  _300
REMARK  123  A    between atoms: _303  and  _305
REMARK  124  A    between atoms: _305  and  _306
REMARK  125  A    between atoms: _305  and  _308
REMARK  126  A    between atoms: _308  and  _309
REMARK  127  A    between atoms: _319  and  _321
REMARK  128  A    between atoms: _321  and  _322
REMARK  129  A    between atoms: _321  and  _324
REMARK  130  A    between atoms: _324  and  _325
REMARK  131  A    between atoms: _325  and  _326
REMARK  132  A    between atoms: _329  and  _331
REMARK  133  A    between atoms: _331  and  _332
REMARK  134  A    between atoms: _331  and  _334
REMARK  135  A    between atoms: _334  and  _335
REMARK  136  A    between atoms: _335  and  _336
REMARK  137  A    between atoms: _336  and  _337
REMARK  138  A    between atoms: _346  and  _348
REMARK  139  A    between atoms: _348  and  _349
REMARK  140  A    between atoms: _348  and  _351
REMARK  141  A    between atoms: _351  and  _352
REMARK  142  A    between atoms: _357  and  _358
REMARK  143  A    between atoms: _360  and  _362
REMARK  144  A    between atoms: _362  and  _363
REMARK  145  A    between atoms: _362  and  _365
REMARK  146  A    between atoms: _365  and  _366
REMARK  147  A    between atoms: _366  and  _367
REMARK  148  A    between atoms: _372  and  _374
REMARK  149  A    between atoms: _374  and  _375
REMARK  150  A    between atoms: _374  and  _377
REMARK  151  A    between atoms: _377  and  _378
REMARK  152  A    between atoms: _384  and  _386
REMARK  153  A    between atoms: _386  and  _387
REMARK  154  A    between atoms: _386  and  _389
REMARK  155  A    between atoms: _389  and  _390
REMARK  156  A    between atoms: _390  and  _391
REMARK  157  A    between atoms: _391  and  _392
REMARK  158  A    between atoms: _392  and  _393
REMARK  159  A    between atoms: _397  and  _399
REMARK  160  A    between atoms: _399  and  _400
REMARK  161  A    between atoms: _402  and  _404
REMARK  162  A    between atoms: _404  and  _405
REMARK  163  A    between atoms: _404  and  _407
REMARK  164  A    between atoms: _407  and  _408
REMARK  165  A    between atoms: _414  and  _415
REMARK  166  A    between atoms: _420  and  _422
REMARK  167  A    between atoms: _422  and  _423
REMARK  168  A    between atoms: _422  and  _425
REMARK  169  A    between atoms: _425  and  _426
REMARK  170  A    between atoms: _426  and  _427
REMARK  171  A    between atoms: _427  and  _428
REMARK  172  A    between atoms: _437  and  _439
REMARK  173  A    between atoms: _439  and  _440
REMARK  174  A    between atoms: _442  and  _444
REMARK  175  A    between atoms: _444  and  _445
REMARK  176  A    between atoms: _444  and  _447
REMARK  177  A    between atoms: _447  and  _448
REMARK  178  A    between atoms: _453  and  _455
REMARK  179  A    between atoms: _455  and  _456
REMARK  180  A    between atoms: _455  and  _458
REMARK  181  A    between atoms: _458  and  _459
REMARK  182  A    between atoms: _463  and  _464
REMARK  183  A    between atoms: _469  and  _471
REMARK  184  A    between atoms: _471  and  _472
REMARK  185  A    between atoms: _475  and  _477
REMARK  186  A    between atoms: _477  and  _478
REMARK  187  A    between atoms: _477  and  _480
REMARK  188  A    between atoms: _480  and  _481
REMARK  189  A    between atoms: _486  and  _488
REMARK  190  A    between atoms: _488  and  _489
REMARK  191  A    between atoms: _488  and  _491
REMARK  192  A    between atoms: _491  and  _492
REMARK  193  A    between atoms: _495  and  _497
REMARK  194  A    between atoms: _497  and  _498
REMARK  195  A    between atoms: _497  and  _500
REMARK  196  A    between atoms: _500  and  _501
REMARK  197  A    between atoms: _503  and  _505
REMARK  198  A    between atoms: _505  and  _506
REMARK  199  A    between atoms: _505  and  _508
REMARK  200  A    between atoms: _508  and  _509
REMARK  201  A    between atoms: _515  and  _517
REMARK  202  A    between atoms: _517  and  _518
REMARK  203  A    between atoms: _517  and  _520
REMARK  204  A    between atoms: _520  and  _521
REMARK  205  A    between atoms: _521  and  _522
REMARK  206  A    between atoms: _525  and  _527
REMARK  207  A    between atoms: _527  and  _528
REMARK  208  A    between atoms: _527  and  _530
REMARK  209  A    between atoms: _533  and  _535
REMARK  210  A    between atoms: _535  and  _536
REMARK  211  A    between atoms: _535  and  _538
REMARK  212  A    between atoms: _538  and  _539
REMARK  213  A    between atoms: _542  and  _544
REMARK  214  A    between atoms: _544  and  _545
REMARK  215  A    between atoms: _544  and  _547
REMARK  216  A    between atoms: _550  and  _552
REMARK  217  A    between atoms: _552  and  _553
REMARK  218  A    between atoms: _556  and  _558
REMARK  219  A    between atoms: _558  and  _559
REMARK  220  A    between atoms: _558  and  _561
REMARK  221  A    between atoms: _561  and  _562
REMARK  222  A    between atoms: _564  and  _566
REMARK  223  A    between atoms: _566  and  _567
REMARK  224  A    between atoms: _566  and  _569
REMARK  225  A    between atoms: _569  and  _570
REMARK  226  A    between atoms: _572  and  _574
REMARK  227  A    between atoms: _574  and  _575
REMARK  228  A    between atoms: _574  and  _577
REMARK  229  A    between atoms: _577  and  _578
REMARK  230  A    between atoms: _581  and  _583
REMARK  231  A    between atoms: _583  and  _584
REMARK  232  A    between atoms: _583  and  _586
REMARK  233  A    between atoms: _586  and  _587
REMARK  234  A    between atoms: _592  and  _593
REMARK  235  A    between atoms: _595  and  _597
REMARK  236  A    between atoms: _597  and  _598
REMARK  237  A    between atoms: _597  and  _600
REMARK  238  A    between atoms: _600  and  _601
REMARK  239  A    between atoms: _607  and  _609
REMARK  240  A    between atoms: _609  and  _610
REMARK  241  A    between atoms: _609  and  _612
REMARK  242  A    between atoms: _612  and  _613
REMARK  243  A    between atoms: _615  and  _617
REMARK  244  A    between atoms: _617  and  _618
REMARK  245  A    between atoms: _617  and  _620
REMARK  246  A    between atoms: _620  and  _621
REMARK  247  A    between atoms: _624  and  _626
REMARK  248  A    between atoms: _626  and  _627
REMARK  249  A    between atoms: _626  and  _629
REMARK  250  A    between atoms: _629  and  _630
REMARK  251  A    between atoms: _635  and  _636
REMARK                            x       y       z     vdW  Elec       q    Type
REMARK                         _______ _______ _______ _____ _____    ______ ____
ROOT
ATOM      1  CA  ARG A   1       4.036  -5.068   9.833  0.00  0.00    +0.145 C 
ENDROOT
BRANCH   1   2
ATOM      2  C   ARG A   1       4.357  -6.445  10.443  0.00  0.00    +0.238 C 
ATOM      3  N   PHE A   2       4.383  -6.532  11.775  0.00  0.00    -0.298 N 
ATOM      4  H   PHE A   2       4.158  -5.688  12.340  0.00  0.00    +0.150 HD
ATOM      5  O   ARG A   1       4.557  -7.413   9.704  0.00  0.00    -0.274 OA
BRANCH   3   6
ATOM      6  CA  PHE A   2       4.720  -7.784  12.467  0.00  0.00    +0.141 C 
BRANCH   6   7
ATOM      7  C   PHE A   2       3.719  -8.188  13.555  0.00  0.00    +0.227 C 
ATOM      8  O   PHE A   2       3.341  -7.380  14.409  0.00  0.00    -0.286 OA
ENDBRANCH   6   7
BRANCH   6   9
ATOM      9  CB  PHE A   2       6.141  -7.727  13.050  0.00  0.00    +0.054 C 
BRANCH   9  10
ATOM     10  CG  PHE A   2       7.229  -7.666  12.004  0.00  0.00    -0.020 A 
ATOM     11  CD2 PHE A   2       7.687  -6.445  11.526  0.00  0.00    -0.004 A 
ATOM     12  CE2 PHE A   2       8.697  -6.382  10.554  0.00  0.00    -0.000 A 
ATOM     13  CZ  PHE A   2       9.250  -7.567  10.051  0.00  0.00    -0.000 A 
ATOM     14  CE1 PHE A   2       8.792  -8.793  10.524  0.00  0.00    -0.000 A 
ATOM     15  CD1 PHE A   2       7.788  -8.836  11.494  0.00  0.00    -0.004 A 
ENDBRANCH   9  10
ENDBRANCH   6   9
ENDBRANCH   3   6
ENDBRANCH   1   2
BRANCH   1  16
ATOM     16  N   ARG A   1       3.763  -4.018  10.814  0.00  0.00    -0.238 NA
ATOM     17  H   ARG A   1       4.560  -3.525  11.265  0.00  0.00    +0.142 HD
ENDBRANCH   1  16
BRANCH   1  18
ATOM     18  CB  ARG A   1       5.135  -4.622   8.847  0.00  0.00    +0.030 C 
BRANCH  18  19
ATOM     19  CG  ARG A   1       4.727  -3.439   7.949  0.00  0.00    +0.045 C 
BRANCH  19  20
ATOM     20  CD  ARG A   1       5.596  -3.325   6.683  0.00  0.00    +0.174 C 
BRANCH  20  21
ATOM     21  NE  ARG A   1       5.363  -2.058   5.980  0.00  0.00    -0.265 N 
ATOM     22  HE  ARG A   1       4.458  -1.574   6.150  0.00  0.00    +0.259 HD
ATOM     23  CZ  ARG A   1       6.223  -1.478   5.138  0.00  0.00    +0.342 C 
ATOM     24  NH2 ARG A   1       7.398  -2.038   4.873  0.00  0.00    -0.292 N 
ATOM     25 HH21 ARG A   1       7.658  -2.939   5.323  0.00  0.00    +0.255 HD
ATOM     26 HH22 ARG A   1       8.058  -1.576   4.216  0.00  0.00    +0.255 HD
ATOM     27  NH1 ARG A   1       5.909  -0.323   4.561  0.00  0.00    -0.292 N 
ATOM     28 HH11 ARG A   1       4.995   0.129   4.765  0.00  0.00    +0.255 HD
ATOM     29 HH12 ARG A   1       6.578   0.129   3.905  0.00  0.00    +0.255 HD
ENDBRANCH  20  21
ENDBRANCH  19  20
ENDBRANCH  18  19
ENDBRANCH   1  18
TORSDOF 10
REMARK  Name = ../refined-set-2016/2ihj/2ihj_pocket.pdb
REMARK  251 active torsions:
REMARK  status: ('A' for Active; 'I' for Inactive)
REMARK    1  A    between atoms: _1  and  _3
REMARK    2  A    between atoms: _3  and  _4
REMARK    3  A    between atoms: _3  and  _6
REMARK    4  A    between atoms: _6  and  _7
REMARK    5  A    between atoms: _11  and  _12
REMARK    6  A    between atoms: _17  and  _19
REMARK    7  A    between atoms: _19  and  _20
REMARK    8  A    between atoms: _23  and  _25
REMARK    9  A    between atoms: _25  and  _26
REMARK   10  A    between atoms: _25  and  _28
REMARK   11  A    between atoms: _28  and  _29
REMARK   12  A    between atoms: _31  and  _33
REMARK   13  A    between atoms: _33  and  _34
REMARK   14  A    between atoms: _33  and  _36
REMARK   15  A    between atoms: _36  and  _37
REMARK   16  A    between atoms: _41  and  _42
REMARK   17  A    between atoms: _47  and  _49
REMARK   18  A    between atoms: _49  and  _50
REMARK   19  A    between atoms: _49  and  _52
REMARK   20  A    between atoms: _52  and  _53
REMARK   21  A    between atoms: _56  and  _58
REMARK   22  A    between atoms: _58  and  _59
REMARK   23  A    between atoms: _58  and  _61
REMARK   24  A    between atoms: _61  and  _62
REMARK   25  A    between atoms: _62  and  _63
REMARK   26  A    between atoms: _63  and  _64
REMARK   27  A    between atoms: _73  and  _75
REMARK   28  A    between atoms: _75  and  _76
REMARK   29  A    between atoms: _75  and  _78
REMARK   30  A    between atoms: _78  and  _79
REMARK   31  A    between atoms: _85  and  _87
REMARK   32  A    between atoms: _87  and  _88
REMARK   33  A    between atoms: _87  and  _90
REMARK   34  A    between atoms: _90  and  _91
REMARK   35  A    between atoms: _96  and  _98
REMARK   36  A    between atoms: _98  and  _99
REMARK   37  A    between atoms: _102  and  _104
REMARK   38  A    between atoms: _104  and  _105
REMARK   39  A    between atoms: _104  and  _107
REMARK   40  A    between atoms: _107  and  _108
REMARK   41  A    between atoms: _113  and  _115
REMARK   42  A    between atoms: _115  and  _116
REMARK   43  A    between atoms: _115  and  _118
REMARK   44  A    between atoms: _118  and  _119
REMARK   45  A    between atoms: _122  and  _124
REMARK   46  A    between atoms: _124  and  _125
REMARK   47  A    between atoms: _124  and  _127
REMARK   48  A    between atoms: _127  and  _128
REMARK   49  A    between atoms: _131  and  _133
REMARK   50  A    between atoms: _133  and  _134
REMARK   51  A    between atoms: _136  and  _138
REMARK   52  A    between atoms: _138  and  _139
REMARK   53  A    between atoms: _138  and  _141
REMARK   54  A    between atoms: _141  and  _142
REMARK   55  A    between atoms: _144  and  _146
REMARK   56  A    between atoms: _146  and  _147
REMARK   57  A    between atoms: _146  and  _149
REMARK   58  A    between atoms: _149  and  _150
REMARK   59  A    between atoms: _150  and  _151
REMARK   60  A    between atoms: _153  and  _155
REMARK   61  A    between atoms: _155  and  _156
REMARK   62  A    between atoms: _155  and  _158
REMARK   63  A    between atoms: _158  and  _159
REMARK   64  A    between atoms: _159  and  _160
REMARK   65  A    between atoms: _163  and  _165
REMARK   66  A    between atoms: _165  and  _166
REMARK   67  A    between atoms: _165  and  _168
REMARK   68  A    between atoms: _168  and  _169
REMARK   69  A    between atoms: _174  and  _175
REMARK   70  A    between atoms: _177  and  _179
REMARK   71  A    between atoms: _179  and  _180
REMARK   72  A    between atoms: _179  and  _182
REMARK   73  A    between atoms: _185  and  _187
REMARK   74  A    between atoms: _187  and  _188
REMARK   75  A    between atoms: _187  and  _190
REMARK   76  A    between atoms: _190  and  _191
REMARK   77  A    between atoms: _194  and  _196
REMARK   78  A    between atoms: _196  and  _197
REMARK   79  A    between atoms: _196  and  _199
REMARK   80  A    between atoms: _199  and  _200
REMARK   81  A    between atoms: _200  and  _201
REMARK   82  A    between atoms: _201  and  _202
REMARK   83  A    between atoms: _202  and  _203
REMARK   84  A    between atoms: _207  and  _209
REMARK   85  A    between atoms: _209  and  _210
REMARK   86  A    between atoms: _209  and  _212
REMARK   87  A    between atoms: _212  and  _213
REMARK   88  A    between atoms: _216  and  _218
REMARK   89  A    between atoms: _218  and  _219
REMARK   90  A    between atoms: _218  and  _221
REMARK   91  A    between atoms: _221  and  _222
REMARK   92  A    between atoms: _222  and  _223
REMARK   93  A    between atoms: _225  and  _227
REMARK   94  A    between atoms: _227  and  _228
REMARK   95  A    between atoms: _227  and  _230
REMARK   96  A    between atoms: _230  and  _231
REMARK   97  A    between atoms: _241  and  _243
REMARK   98  A    between atoms: _243  and  _244
REMARK   99  A    between atoms: _243  and  _246
REMARK  100  A    between atoms: _246  and  _247
REMARK  101  A    between atoms: _250  and  _252
REMARK  102  A    between atoms: _252  and  _253
REMARK  103  A    between atoms: _252  and  _255
REMARK  104  A    between atoms: _255  and  _256
REMARK  105  A    between atoms: _262  and  _264
REMARK  106  A    between atoms: _264  and  _265
REMARK  107  A    between atoms: _264  and  _267
REMARK  108  A    between atoms: _267  and  _268
REMARK  109  A    between atoms: _271  and  _273
REMARK  110  A    between atoms: _273  and  _274
REMARK  111  A    between atoms: _276  and  _278
REMARK  112  A    between atoms: _278  and  _279
REMARK  113  A    between atoms: _278  and  _281
REMARK  114  A    between atoms: _281  and  _282
REMARK  115  A    between atoms: _285  and  _287
REMARK  116  A    between atoms: _287  and  _288
REMARK  117  A    between atoms: _287  and  _290
REMARK  118  A    between atoms: _290  and  _291
REMARK  119  A    between atoms: _294  and  _296
REMARK  120  A    between atoms: _296  and  _297
REMARK  121  A    between atoms: _296  and  _299
REMARK  122  A    between atoms: _299  and  _300
REMARK  123  A    between atoms: _303  and  _305
REMARK  124  A    between atoms: _305  and  _306
REMARK  125  A    between atoms: _305  and  _308
REMARK  126  A    between atoms: _308  and  _309
REMARK  127  A    between atoms: _319  and  _321
REMARK  128  A    between atoms: _321  and  _322
REMARK  129  A    between atoms: _321  and  _324
REMARK  130  A    between atoms: _324  and  _325
REMARK  131  A    between atoms: _325  and  _326
REMARK  132  A    between atoms: _329  and  _331
REMARK  133  A    between atoms: _331  and  _332
REMARK  134  A    between atoms: _331  and  _334
REMARK  135  A    between atoms: _334  and  _335
REMARK  136  A    between atoms: _335  and  _336
REMARK  137  A    between atoms: _336  and  _337
REMARK  138  A    between atoms: _346  and  _348
REMARK  139  A    between atoms: _348  and  _349
REMARK  140  A    between atoms: _348  and  _351
REMARK  141  A    between atoms: _351  and  _352
REMARK  142  A    between atoms: _357  and  _358
REMARK  143  A    between atoms: _360  and  _362
REMARK  144  A    between atoms: _362  and  _363
REMARK  145  A    between atoms: _362  and  _365
REMARK  146  A    between atoms: _365  and  _366
REMARK  147  A    between atoms: _366  and  _367
REMARK  148  A    between atoms: _372  and  _374
REMARK  149  A    between atoms: _374  and  _375
REMARK  150  A    between atoms: _374  and  _377
REMARK  151  A    between atoms: _377  and  _378
REMARK  152  A    between atoms: _384  and  _386
REMARK  153  A    between atoms: _386  and  _387
REMARK  154  A    between atoms: _386  and  _389
REMARK  155  A    between atoms: _389  and  _390
REMARK  156  A    between atoms: _390  and  _391
REMARK  157  A    between atoms: _391  and  _392
REMARK  158  A    between atoms: _392  and  _393
REMARK  159  A    between atoms: _397  and  _399
REMARK  160  A    between atoms: _399  and  _400
REMARK  161  A    between atoms: _402  and  _404
REMARK  162  A    between atoms: _404  and  _405
REMARK  163  A    between atoms: _404  and  _407
REMARK  164  A    between atoms: _407  and  _408
REMARK  165  A    between atoms: _414  and  _415
REMARK  166  A    between atoms: _420  and  _422
REMARK  167  A    between atoms: _422  and  _423
REMARK  168  A    between atoms: _422  and  _425
REMARK  169  A    between atoms: _425  and  _426
REMARK  170  A    between atoms: _426  and  _427
REMARK  171  A    between atoms: _427  and  _428
REMARK  172  A    between atoms: _437  and  _439
REMARK  173  A    between atoms: _439  and  _440
REMARK  174  A    between atoms: _442  and  _444
REMARK  175  A    between atoms: _444  and  _445
REMARK  176  A    between atoms: _444  and  _447
REMARK  177  A    between atoms: _447  and  _448
REMARK  178  A    between atoms: _453  and  _455
REMARK  179  A    between atoms: _455  and  _456
REMARK  180  A    between atoms: _455  and  _458
REMARK  181  A    between atoms: _458  and  _459
REMARK  182  A    between atoms: _463  and  _464
REMARK  183  A    between atoms: _469  and  _471
REMARK  184  A    between atoms: _471  and  _472
REMARK  185  A    between atoms: _475  and  _477
REMARK  186  A    between atoms: _477  and  _478
REMARK  187  A    between atoms: _477  and  _480
REMARK  188  A    between atoms: _480  and  _481
REMARK  189  A    between atoms: _486  and  _488
REMARK  190  A    between atoms: _488  and  _489
REMARK  191  A    between atoms: _488  and  _491
REMARK  192  A    between atoms: _491  and  _492
REMARK  193  A    between atoms: _495  and  _497
REMARK  194  A    between atoms: _497  and  _498
REMARK  195  A    between atoms: _497  and  _500
REMARK  196  A    between atoms: _500  and  _501
REMARK  197  A    between atoms: _503  and  _505
REMARK  198  A    between atoms: _505  and  _506
REMARK  199  A    between atoms: _505  and  _508
REMARK  200  A    between atoms: _508  and  _509
REMARK  201  A    between atoms: _515  and  _517
REMARK  202  A    between atoms: _517  and  _518
REMARK  203  A    between atoms: _517  and  _520
REMARK  204  A    between atoms: _520  and  _521
REMARK  205  A    between atoms: _521  and  _522
REMARK  206  A    between atoms: _525  and  _527
REMARK  207  A    between atoms: _527  and  _528
REMARK  208  A    between atoms: _527  and  _530
REMARK  209  A    between atoms: _533  and  _535
REMARK  210  A    between atoms: _535  and  _536
REMARK  211  A    between atoms: _535  and  _538
REMARK  212  A    between atoms: _538  and  _539
REMARK  213  A    between atoms: _542  and  _544
REMARK  214  A    between atoms: _544  and  _545
REMARK  215  A    between atoms: _544  and  _547
REMARK  216  A    between atoms: _550  and  _552
REMARK  217  A    between atoms: _552  and  _553
REMARK  218  A    between atoms: _556  and  _558
REMARK  219  A    between atoms: _558  and  _559
REMARK  220  A    between atoms: _558  and  _561
REMARK  221  A    between atoms: _561  and  _562
REMARK  222  A    between atoms: _564  and  _566
REMARK  223  A    between atoms: _566  and  _567
REMARK  224  A    between atoms: _566  and  _569
REMARK  225  A    between atoms: _569  and  _570
REMARK  226  A    between atoms: _572  and  _574
REMARK  227  A    between atoms: _574  and  _575
REMARK  228  A    between atoms: _574  and  _577
REMARK  229  A    between atoms: _577  and  _578
REMARK  230  A    between atoms: _581  and  _583
REMARK  231  A    between atoms: _583  and  _584
REMARK  232  A    between atoms: _583  and  _586
REMARK  233  A    between atoms: _586  and  _587
REMARK  234  A    between atoms: _592  and  _593
REMARK  235  A    between atoms: _595  and  _597
REMARK  236  A    between atoms: _597  and  _598
REMARK  237  A    between atoms: _597  and  _600
REMARK  238  A    between atoms: _600  and  _601
REMARK  239  A    between atoms: _607  and  _609
REMARK  240  A    between atoms: _609  and  _610
REMARK  241  A    between atoms: _609  and  _612
REMARK  242  A    between atoms: _612  and  _613
REMARK  243  A    between atoms: _615  and  _617
REMARK  244  A    between atoms: _617  and  _618
REMARK  245  A    between atoms: _617  and  _620
REMARK  246  A    between atoms: _620  and  _621
REMARK  247  A    between atoms: _624  and  _626
REMARK  248  A    between atoms: _626  and  _627
REMARK  249  A    between atoms: _626  and  _629
REMARK  250  A    between atoms: _629  and  _630
REMARK  251  A    between atoms: _635  and  _636
REMARK                            x       y       z     vdW  Elec       q    Type
REMARK                         _______ _______ _______ _____ _____    ______ ____
ROOT
ATOM      1  CB  ASN A   1      10.309   4.705  12.563  0.00  0.00    +0.110 C 
ENDROOT
BRANCH   1   2
ATOM      2  CG  ASN A   1      10.422   4.999  11.048  0.00  0.00    +0.221 C 
ATOM      3  OD1 ASN A   1      10.816   6.091  10.625  0.00  0.00    -0.275 OA
ATOM      4  ND2 ASN A   1       9.995   4.028  10.228  0.00  0.00    -0.329 N 
ATOM      5 HD21 ASN A   1       9.670   3.121  10.621  0.00  0.00    +0.145 HD
ATOM      6 HD22 ASN A   1       9.988   4.182   9.199  0.00  0.00    +0.145 HD
ENDBRANCH   1   2
BRANCH   1   7
ATOM      7  CA  ASN A   1      11.623   4.939  13.369  0.00  0.00    +0.142 C 
BRANCH   7   8
ATOM      8  N   ASN A   1      11.332   4.642  14.797  0.00  0.00    -0.239 NA
ATOM      9  H   ASN A   1      10.331   4.551  15.064  0.00  0.00    +0.142 HD
ENDBRANCH   7   8
BRANCH   7  10
ATOM     10  C   ASN A   1      12.129   6.395  13.241  0.00  0.00    +0.225 C 
ATOM     11  O   ASN A   1      11.451   7.315  13.685  0.00  0.00    -0.287 OA
ENDBRANCH   7  10
ENDBRANCH   1   7
TORSDOF 4
REMARK  Name = ../refined-set-2016/2ihj/2ihj_pocket.pdb
REMARK  251 active torsions:
REMARK  status: ('A' for Active; 'I' for Inactive)
REMARK    1  A    between atoms: _1  and  _3
REMARK    2  A    between atoms: _3  and  _4
REMARK    3  A    between atoms: _3  and  _6
REMARK    4  A    between atoms: _6  and  _7
REMARK    5  A    between atoms: _11  and  _12
REMARK    6  A    between atoms: _17  and  _19
REMARK    7  A    between atoms: _19  and  _20
REMARK    8  A    between atoms: _23  and  _25
REMARK    9  A    between atoms: _25  and  _26
REMARK   10  A    between atoms: _25  and  _28
REMARK   11  A    between atoms: _28  and  _29
REMARK   12  A    between atoms: _31  and  _33
REMARK   13  A    between atoms: _33  and  _34
REMARK   14  A    between atoms: _33  and  _36
REMARK   15  A    between atoms: _36  and  _37
REMARK   16  A    between atoms: _41  and  _42
REMARK   17  A    between atoms: _47  and  _49
REMARK   18  A    between atoms: _49  and  _50
REMARK   19  A    between atoms: _49  and  _52
REMARK   20  A    between atoms: _52  and  _53
REMARK   21  A    between atoms: _56  and  _58
REMARK   22  A    between atoms: _58  and  _59
REMARK   23  A    between atoms: _58  and  _61
REMARK   24  A    between atoms: _61  and  _62
REMARK   25  A    between atoms: _62  and  _63
REMARK   26  A    between atoms: _63  and  _64
REMARK   27  A    between atoms: _73  and  _75
REMARK   28  A    between atoms: _75  and  _76
REMARK   29  A    between atoms: _75  and  _78
REMARK   30  A    between atoms: _78  and  _79
REMARK   31  A    between atoms: _85  and  _87
REMARK   32  A    between atoms: _87  and  _88
REMARK   33  A    between atoms: _87  and  _90
REMARK   34  A    between atoms: _90  and  _91
REMARK   35  A    between atoms: _96  and  _98
REMARK   36  A    between atoms: _98  and  _99
REMARK   37  A    between atoms: _102  and  _104
REMARK   38  A    between atoms: _104  and  _105
REMARK   39  A    between atoms: _104  and  _107
REMARK   40  A    between atoms: _107  and  _108
REMARK   41  A    between atoms: _113  and  _115
REMARK   42  A    between atoms: _115  and  _116
REMARK   43  A    between atoms: _115  and  _118
REMARK   44  A    between atoms: _118  and  _119
REMARK   45  A    between atoms: _122  and  _124
REMARK   46  A    between atoms: _124  and  _125
REMARK   47  A    between atoms: _124  and  _127
REMARK   48  A    between atoms: _127  and  _128
REMARK   49  A    between atoms: _131  and  _133
REMARK   50  A    between atoms: _133  and  _134
REMARK   51  A    between atoms: _136  and  _138
REMARK   52  A    between atoms: _138  and  _139
REMARK   53  A    between atoms: _138  and  _141
REMARK   54  A    between atoms: _141  and  _142
REMARK   55  A    between atoms: _144  and  _146
REMARK   56  A    between atoms: _146  and  _147
REMARK   57  A    between atoms: _146  and  _149
REMARK   58  A    between atoms: _149  and  _150
REMARK   59  A    between atoms: _150  and  _151
REMARK   60  A    between atoms: _153  and  _155
REMARK   61  A    between atoms: _155  and  _156
REMARK   62  A    between atoms: _155  and  _158
REMARK   63  A    between atoms: _158  and  _159
REMARK   64  A    between atoms: _159  and  _160
REMARK   65  A    between atoms: _163  and  _165
REMARK   66  A    between atoms: _165  and  _166
REMARK   67  A    between atoms: _165  and  _168
REMARK   68  A    between atoms: _168  and  _169
REMARK   69  A    between atoms: _174  and  _175
REMARK   70  A    between atoms: _177  and  _179
REMARK   71  A    between atoms: _179  and  _180
REMARK   72  A    between atoms: _179  and  _182
REMARK   73  A    between atoms: _185  and  _187
REMARK   74  A    between atoms: _187  and  _188
REMARK   75  A    between atoms: _187  and  _190
REMARK   76  A    between atoms: _190  and  _191
REMARK   77  A    between atoms: _194  and  _196
REMARK   78  A    between atoms: _196  and  _197
REMARK   79  A    between atoms: _196  and  _199
REMARK   80  A    between atoms: _199  and  _200
REMARK   81  A    between atoms: _200  and  _201
REMARK   82  A    between atoms: _201  and  _202
REMARK   83  A    between atoms: _202  and  _203
REMARK   84  A    between atoms: _207  and  _209
REMARK   85  A    between atoms: _209  and  _210
REMARK   86  A    between atoms: _209  and  _212
REMARK   87  A    between atoms: _212  and  _213
REMARK   88  A    between atoms: _216  and  _218
REMARK   89  A    between atoms: _218  and  _219
REMARK   90  A    between atoms: _218  and  _221
REMARK   91  A    between atoms: _221  and  _222
REMARK   92  A    between atoms: _222  and  _223
REMARK   93  A    between atoms: _225  and  _227
REMARK   94  A    between atoms: _227  and  _228
REMARK   95  A    between atoms: _227  and  _230
REMARK   96  A    between atoms: _230  and  _231
REMARK   97  A    between atoms: _241  and  _243
REMARK   98  A    between atoms: _243  and  _244
REMARK   99  A    between atoms: _243  and  _246
REMARK  100  A    between atoms: _246  and  _247
REMARK  101  A    between atoms: _250  and  _252
REMARK  102  A    between atoms: _252  and  _253
REMARK  103  A    between atoms: _252  and  _255
REMARK  104  A    between atoms: _255  and  _256
REMARK  105  A    between atoms: _262  and  _264
REMARK  106  A    between atoms: _264  and  _265
REMARK  107  A    between atoms: _264  and  _267
REMARK  108  A    between atoms: _267  and  _268
REMARK  109  A    between atoms: _271  and  _273
REMARK  110  A    between atoms: _273  and  _274
REMARK  111  A    between atoms: _276  and  _278
REMARK  112  A    between atoms: _278  and  _279
REMARK  113  A    between atoms: _278  and  _281
REMARK  114  A    between atoms: _281  and  _282
REMARK  115  A    between atoms: _285  and  _287
REMARK  116  A    between atoms: _287  and  _288
REMARK  117  A    between atoms: _287  and  _290
REMARK  118  A    between atoms: _290  and  _291
REMARK  119  A    between atoms: _294  and  _296
REMARK  120  A    between atoms: _296  and  _297
REMARK  121  A    between atoms: _296  and  _299
REMARK  122  A    between atoms: _299  and  _300
REMARK  123  A    between atoms: _303  and  _305
REMARK  124  A    between atoms: _305  and  _306
REMARK  125  A    between atoms: _305  and  _308
REMARK  126  A    between atoms: _308  and  _309
REMARK  127  A    between atoms: _319  and  _321
REMARK  128  A    between atoms: _321  and  _322
REMARK  129  A    between atoms: _321  and  _324
REMARK  130  A    between atoms: _324  and  _325
REMARK  131  A    between atoms: _325  and  _326
REMARK  132  A    between atoms: _329  and  _331
REMARK  133  A    between atoms: _331  and  _332
REMARK  134  A    between atoms: _331  and  _334
REMARK  135  A    between atoms: _334  and  _335
REMARK  136  A    between atoms: _335  and  _336
REMARK  137  A    between atoms: _336  and  _337
REMARK  138  A    between atoms: _346  and  _348
REMARK  139  A    between atoms: _348  and  _349
REMARK  140  A    between atoms: _348  and  _351
REMARK  141  A    between atoms: _351  and  _352
REMARK  142  A    between atoms: _357  and  _358
REMARK  143  A    between atoms: _360  and  _362
REMARK  144  A    between atoms: _362  and  _363
REMARK  145  A    between atoms: _362  and  _365
REMARK  146  A    between atoms: _365  and  _366
REMARK  147  A    between atoms: _366  and  _367
REMARK  148  A    between atoms: _372  and  _374
REMARK  149  A    between atoms: _374  and  _375
REMARK  150  A    between atoms: _374  and  _377
REMARK  151  A    between atoms: _377  and  _378
REMARK  152  A    between atoms: _384  and  _386
REMARK  153  A    between atoms: _386  and  _387
REMARK  154  A    between atoms: _386  and  _389
REMARK  155  A    between atoms: _389  and  _390
REMARK  156  A    between atoms: _390  and  _391
REMARK  157  A    between atoms: _391  and  _392
REMARK  158  A    between atoms: _392  and  _393
REMARK  159  A    between atoms: _397  and  _399
REMARK  160  A    between atoms: _399  and  _400
REMARK  161  A    between atoms: _402  and  _404
REMARK  162  A    between atoms: _404  and  _405
REMARK  163  A    between atoms: _404  and  _407
REMARK  164  A    between atoms: _407  and  _408
REMARK  165  A    between atoms: _414  and  _415
REMARK  166  A    between atoms: _420  and  _422
REMARK  167  A    between atoms: _422  and  _423
REMARK  168  A    between atoms: _422  and  _425
REMARK  169  A    between atoms: _425  and  _426
REMARK  170  A    between atoms: _426  and  _427
REMARK  171  A    between atoms: _427  and  _428
REMARK  172  A    between atoms: _437  and  _439
REMARK  173  A    between atoms: _439  and  _440
REMARK  174  A    between atoms: _442  and  _444
REMARK  175  A    between atoms: _444  and  _445
REMARK  176  A    between atoms: _444  and  _447
REMARK  177  A    between atoms: _447  and  _448
REMARK  178  A    between atoms: _453  and  _455
REMARK  179  A    between atoms: _455  and  _456
REMARK  180  A    between atoms: _455  and  _458
REMARK  181  A    between atoms: _458  and  _459
REMARK  182  A    between atoms: _463  and  _464
REMARK  183  A    between atoms: _469  and  _471
REMARK  184  A    between atoms: _471  and  _472
REMARK  185  A    between atoms: _475  and  _477
REMARK  186  A    between atoms: _477  and  _478
REMARK  187  A    between atoms: _477  and  _480
REMARK  188  A    between atoms: _480  and  _481
REMARK  189  A    between atoms: _486  and  _488
REMARK  190  A    between atoms: _488  and  _489
REMARK  191  A    between atoms: _488  and  _491
REMARK  192  A    between atoms: _491  and  _492
REMARK  193  A    between atoms: _495  and  _497
REMARK  194  A    between atoms: _497  and  _498
REMARK  195  A    between atoms: _497  and  _500
REMARK  196  A    between atoms: _500  and  _501
REMARK  197  A    between atoms: _503  and  _505
REMARK  198  A    between atoms: _505  and  _506
REMARK  199  A    between atoms: _505  and  _508
REMARK  200  A    between atoms: _508  and  _509
REMARK  201  A    between atoms: _515  and  _517
REMARK  202  A    between atoms: _517  and  _518
REMARK  203  A    between atoms: _517  and  _520
REMARK  204  A    between atoms: _520  and  _521
REMARK  205  A    between atoms: _521  and  _522
REMARK  206  A    between atoms: _525  and  _527
REMARK  207  A    between atoms: _527  and  _528
REMARK  208  A    between atoms: _527  and  _530
REMARK  209  A    between atoms: _533  and  _535
REMARK  210  A    between atoms: _535  and  _536
REMARK  211  A    between atoms: _535  and  _538
REMARK  212  A    between atoms: _538  and  _539
REMARK  213  A    between atoms: _542  and  _544
REMARK  214  A    between atoms: _544  and  _545
REMARK  215  A    between atoms: _544  and  _547
REMARK  216  A    between atoms: _550  and  _552
REMARK  217  A    between atoms: _552  and  _553
REMARK  218  A    between atoms: _556  and  _558
REMARK  219  A    between atoms: _558  and  _559
REMARK  220  A    between atoms: _558  and  _561
REMARK  221  A    between atoms: _561  and  _562
REMARK  222  A    between atoms: _564  and  _566
REMARK  223  A    between atoms: _566  and  _567
REMARK  224  A    between atoms: _566  and  _569
REMARK  225  A    between atoms: _569  and  _570
REMARK  226  A    between atoms: _572  and  _574
REMARK  227  A    between atoms: _574  and  _575
REMARK  228  A    between atoms: _574  and  _577
REMARK  229  A    between atoms: _577  and  _578
REMARK  230  A    between atoms: _581  and  _583
REMARK  231  A    between atoms: _583  and  _584
REMARK  232  A    between atoms: _583  and  _586
REMARK  233  A    between atoms: _586  and  _587
REMARK  234  A    between atoms: _592  and  _593
REMARK  235  A    between atoms: _595  and  _597
REMARK  236  A    between atoms: _597  and  _598
REMARK  237  A    between atoms: _597  and  _600
REMARK  238  A    between atoms: _600  and  _601
REMARK  239  A    between atoms: _607  and  _609
REMARK  240  A    between atoms: _609  and  _610
REMARK  241  A    between atoms: _609  and  _612
REMARK  242  A    between atoms: _612  and  _613
REMARK  243  A    between atoms: _615  and  _617
REMARK  244  A    between atoms: _617  and  _618
REMARK  245  A    between atoms: _617  and  _620
REMARK  246  A    between atoms: _620  and  _621
REMARK  247  A    between atoms: _624  and  _626
REMARK  248  A    between atoms: _626  and  _627
REMARK  249  A    between atoms: _626  and  _629
REMARK  250  A    between atoms: _629  and  _630
REMARK  251  A    between atoms: _635  and  _636
REMARK                            x       y       z     vdW  Elec       q    Type
REMARK                         _______ _______ _______ _____ _____    ______ ____
ROOT
ATOM      1  CA  HIS A   2       8.661   9.274  11.731  0.00  0.00    +0.143 C 
ENDROOT
BRANCH   1   3
ATOM      2  C   ALA A   1      10.533   9.926  10.283  0.00  0.00    +0.238 C 
ATOM      3  N   HIS A   2       9.953   9.029  11.082  0.00  0.00    -0.298 N 
ATOM      4  H   HIS A   2      10.435   8.123  11.251  0.00  0.00    +0.150 HD
ATOM      5  O   ALA A   1      10.069  11.050  10.089  0.00  0.00    -0.274 OA
BRANCH   2   6
ATOM      6  CA  ALA A   1      11.855   9.500   9.623  0.00  0.00    +0.145 C 
ATOM      7  CB  ALA A   1      11.591   8.856   8.217  0.00  0.00    +0.028 C 
BRANCH   6   8
ATOM      8  N   ALA A   1      12.647   8.607  10.488  0.00  0.00    -0.238 NA
ATOM      9  H   ALA A   1      12.915   7.668  10.131  0.00  0.00    +0.142 HD
ENDBRANCH   6   8
ENDBRANCH   2   6
ENDBRANCH   1   3
BRANCH   1  10
ATOM     10  C   HIS A   2       8.765   9.557  13.257  0.00  0.00    +0.227 C 
ATOM     11  O   HIS A   2       7.750   9.527  13.963  0.00  0.00    -0.286 OA
ENDBRANCH   1  10
BRANCH   1  12
ATOM     12  CB  HIS A   2       7.697   8.098  11.442  0.00  0.00    +0.075 C 
BRANCH  12  13
ATOM     13  CG  HIS A   2       7.344   7.931   9.986  0.00  0.00    +0.082 A 
ATOM     14  ND1 HIS A   2       6.631   8.874   9.277  0.00  0.00    -0.227 NA
ATOM     15  CE1 HIS A   2       6.467   8.461   8.030  0.00  0.00    +0.199 A 
ATOM     16  NE2 HIS A   2       7.044   7.278   7.904  0.00  0.00    -0.221 NA
ATOM     17  CD2 HIS A   2       7.595   6.921   9.114  0.00  0.00    +0.115 A 
ENDBRANCH  12  13
ENDBRANCH   1  12
TORSDOF 6
REMARK  Name = ../refined-set-2016/2ihj/2ihj_pocket.pdb
REMARK  251 active torsions:
REMARK  status: ('A' for Active; 'I' for Inactive)
REMARK    1  A    between atoms: _1  and  _3
REMARK    2  A    between atoms: _3  and  _4
REMARK    3  A    between atoms: _3  and  _6
REMARK    4  A    between atoms: _6  and  _7
REMARK    5  A    between atoms: _11  and  _12
REMARK    6  A    between atoms: _17  and  _19
REMARK    7  A    between atoms: _19  and  _20
REMARK    8  A    between atoms: _23  and  _25
REMARK    9  A    between atoms: _25  and  _26
REMARK   10  A    between atoms: _25  and  _28
REMARK   11  A    between atoms: _28  and  _29
REMARK   12  A    between atoms: _31  and  _33
REMARK   13  A    between atoms: _33  and  _34
REMARK   14  A    between atoms: _33  and  _36
REMARK   15  A    between atoms: _36  and  _37
REMARK   16  A    between atoms: _41  and  _42
REMARK   17  A    between atoms: _47  and  _49
REMARK   18  A    between atoms: _49  and  _50
REMARK   19  A    between atoms: _49  and  _52
REMARK   20  A    between atoms: _52  and  _53
REMARK   21  A    between atoms: _56  and  _58
REMARK   22  A    between atoms: _58  and  _59
REMARK   23  A    between atoms: _58  and  _61
REMARK   24  A    between atoms: _61  and  _62
REMARK   25  A    between atoms: _62  and  _63
REMARK   26  A    between atoms: _63  and  _64
REMARK   27  A    between atoms: _73  and  _75
REMARK   28  A    between atoms: _75  and  _76
REMARK   29  A    between atoms: _75  and  _78
REMARK   30  A    between atoms: _78  and  _79
REMARK   31  A    between atoms: _85  and  _87
REMARK   32  A    between atoms: _87  and  _88
REMARK   33  A    between atoms: _87  and  _90
REMARK   34  A    between atoms: _90  and  _91
REMARK   35  A    between atoms: _96  and  _98
REMARK   36  A    between atoms: _98  and  _99
REMARK   37  A    between atoms: _102  and  _104
REMARK   38  A    between atoms: _104  and  _105
REMARK   39  A    between atoms: _104  and  _107
REMARK   40  A    between atoms: _107  and  _108
REMARK   41  A    between atoms: _113  and  _115
REMARK   42  A    between atoms: _115  and  _116
REMARK   43  A    between atoms: _115  and  _118
REMARK   44  A    between atoms: _118  and  _119
REMARK   45  A    between atoms: _122  and  _124
REMARK   46  A    between atoms: _124  and  _125
REMARK   47  A    between atoms: _124  and  _127
REMARK   48  A    between atoms: _127  and  _128
REMARK   49  A    between atoms: _131  and  _133
REMARK   50  A    between atoms: _133  and  _134
REMARK   51  A    between atoms: _136  and  _138
REMARK   52  A    between atoms: _138  and  _139
REMARK   53  A    between atoms: _138  and  _141
REMARK   54  A    between atoms: _141  and  _142
REMARK   55  A    between atoms: _144  and  _146
REMARK   56  A    between atoms: _146  and  _147
REMARK   57  A    between atoms: _146  and  _149
REMARK   58  A    between atoms: _149  and  _150
REMARK   59  A    between atoms: _150  and  _151
REMARK   60  A    between atoms: _153  and  _155
REMARK   61  A    between atoms: _155  and  _156
REMARK   62  A    between atoms: _155  and  _158
REMARK   63  A    between atoms: _158  and  _159
REMARK   64  A    between atoms: _159  and  _160
REMARK   65  A    between atoms: _163  and  _165
REMARK   66  A    between atoms: _165  and  _166
REMARK   67  A    between atoms: _165  and  _168
REMARK   68  A    between atoms: _168  and  _169
REMARK   69  A    between atoms: _174  and  _175
REMARK   70  A    between atoms: _177  and  _179
REMARK   71  A    between atoms: _179  and  _180
REMARK   72  A    between atoms: _179  and  _182
REMARK   73  A    between atoms: _185  and  _187
REMARK   74  A    between atoms: _187  and  _188
REMARK   75  A    between atoms: _187  and  _190
REMARK   76  A    between atoms: _190  and  _191
REMARK   77  A    between atoms: _194  and  _196
REMARK   78  A    between atoms: _196  and  _197
REMARK   79  A    between atoms: _196  and  _199
REMARK   80  A    between atoms: _199  and  _200
REMARK   81  A    between atoms: _200  and  _201
REMARK   82  A    between atoms: _201  and  _202
REMARK   83  A    between atoms: _202  and  _203
REMARK   84  A    between atoms: _207  and  _209
REMARK   85  A    between atoms: _209  and  _210
REMARK   86  A    between atoms: _209  and  _212
REMARK   87  A    between atoms: _212  and  _213
REMARK   88  A    between atoms: _216  and  _218
REMARK   89  A    between atoms: _218  and  _219
REMARK   90  A    between atoms: _218  and  _221
REMARK   91  A    between atoms: _221  and  _222
REMARK   92  A    between atoms: _222  and  _223
REMARK   93  A    between atoms: _225  and  _227
REMARK   94  A    between atoms: _227  and  _228
REMARK   95  A    between atoms: _227  and  _230
REMARK   96  A    between atoms: _230  and  _231
REMARK   97  A    between atoms: _241  and  _243
REMARK   98  A    between atoms: _243  and  _244
REMARK   99  A    between atoms: _243  and  _246
REMARK  100  A    between atoms: _246  and  _247
REMARK  101  A    between atoms: _250  and  _252
REMARK  102  A    between atoms: _252  and  _253
REMARK  103  A    between atoms: _252  and  _255
REMARK  104  A    between atoms: _255  and  _256
REMARK  105  A    between atoms: _262  and  _264
REMARK  106  A    between atoms: _264  and  _265
REMARK  107  A    between atoms: _264  and  _267
REMARK  108  A    between atoms: _267  and  _268
REMARK  109  A    between atoms: _271  and  _273
REMARK  110  A    between atoms: _273  and  _274
REMARK  111  A    between atoms: _276  and  _278
REMARK  112  A    between atoms: _278  and  _279
REMARK  113  A    between atoms: _278  and  _281
REMARK  114  A    between atoms: _281  and  _282
REMARK  115  A    between atoms: _285  and  _287
REMARK  116  A    between atoms: _287  and  _288
REMARK  117  A    between atoms: _287  and  _290
REMARK  118  A    between atoms: _290  and  _291
REMARK  119  A    between atoms: _294  and  _296
REMARK  120  A    between atoms: _296  and  _297
REMARK  121  A    between atoms: _296  and  _299
REMARK  122  A    between atoms: _299  and  _300
REMARK  123  A    between atoms: _303  and  _305
REMARK  124  A    between atoms: _305  and  _306
REMARK  125  A    between atoms: _305  and  _308
REMARK  126  A    between atoms: _308  and  _309
REMARK  127  A    between atoms: _319  and  _321
REMARK  128  A    between atoms: _321  and  _322
REMARK  129  A    between atoms: _321  and  _324
REMARK  130  A    between atoms: _324  and  _325
REMARK  131  A    between atoms: _325  and  _326
REMARK  132  A    between atoms: _329  and  _331
REMARK  133  A    between atoms: _331  and  _332
REMARK  134  A    between atoms: _331  and  _334
REMARK  135  A    between atoms: _334  and  _335
REMARK  136  A    between atoms: _335  and  _336
REMARK  137  A    between atoms: _336  and  _337
REMARK  138  A    between atoms: _346  and  _348
REMARK  139  A    between atoms: _348  and  _349
REMARK  140  A    between atoms: _348  and  _351
REMARK  141  A    between atoms: _351  and  _352
REMARK  142  A    between atoms: _357  and  _358
REMARK  143  A    between atoms: _360  and  _362
REMARK  144  A    between atoms: _362  and  _363
REMARK  145  A    between atoms: _362  and  _365
REMARK  146  A    between atoms: _365  and  _366
REMARK  147  A    between atoms: _366  and  _367
REMARK  148  A    between atoms: _372  and  _374
REMARK  149  A    between atoms: _374  and  _375
REMARK  150  A    between atoms: _374  and  _377
REMARK  151  A    between atoms: _377  and  _378
REMARK  152  A    between atoms: _384  and  _386
REMARK  153  A    between atoms: _386  and  _387
REMARK  154  A    between atoms: _386  and  _389
REMARK  155  A    between atoms: _389  and  _390
REMARK  156  A    between atoms: _390  and  _391
REMARK  157  A    between atoms: _391  and  _392
REMARK  158  A    between atoms: _392  and  _393
REMARK  159  A    between atoms: _397  and  _399
REMARK  160  A    between atoms: _399  and  _400
REMARK  161  A    between atoms: _402  and  _404
REMARK  162  A    between atoms: _404  and  _405
REMARK  163  A    between atoms: _404  and  _407
REMARK  164  A    between atoms: _407  and  _408
REMARK  165  A    between atoms: _414  and  _415
REMARK  166  A    between atoms: _420  and  _422
REMARK  167  A    between atoms: _422  and  _423
REMARK  168  A    between atoms: _422  and  _425
REMARK  169  A    between atoms: _425  and  _426
REMARK  170  A    between atoms: _426  and  _427
REMARK  171  A    between atoms: _427  and  _428
REMARK  172  A    between atoms: _437  and  _439
REMARK  173  A    between atoms: _439  and  _440
REMARK  174  A    between atoms: _442  and  _444
REMARK  175  A    between atoms: _444  and  _445
REMARK  176  A    between atoms: _444  and  _447
REMARK  177  A    between atoms: _447  and  _448
REMARK  178  A    between atoms: _453  and  _455
REMARK  179  A    between atoms: _455  and  _456
REMARK  180  A    between atoms: _455  and  _458
REMARK  181  A    between atoms: _458  and  _459
REMARK  182  A    between atoms: _463  and  _464
REMARK  183  A    between atoms: _469  and  _471
REMARK  184  A    between atoms: _471  and  _472
REMARK  185  A    between atoms: _475  and  _477
REMARK  186  A    between atoms: _477  and  _478
REMARK  187  A    between atoms: _477  and  _480
REMARK  188  A    between atoms: _480  and  _481
REMARK  189  A    between atoms: _486  and  _488
REMARK  190  A    between atoms: _488  and  _489
REMARK  191  A    between atoms: _488  and  _491
REMARK  192  A    between atoms: _491  and  _492
REMARK  193  A    between atoms: _495  and  _497
REMARK  194  A    between atoms: _497  and  _498
REMARK  195  A    between atoms: _497  and  _500
REMARK  196  A    between atoms: _500  and  _501
REMARK  197  A    between atoms: _503  and  _505
REMARK  198  A    between atoms: _505  and  _506
REMARK  199  A    between atoms: _505  and  _508
REMARK  200  A    between atoms: _508  and  _509
REMARK  201  A    between atoms: _515  and  _517
REMARK  202  A    between atoms: _517  and  _518
REMARK  203  A    between atoms: _517  and  _520
REMARK  204  A    between atoms: _520  and  _521
REMARK  205  A    between atoms: _521  and  _522
REMARK  206  A    between atoms: _525  and  _527
REMARK  207  A    between atoms: _527  and  _528
REMARK  208  A    between atoms: _527  and  _530
REMARK  209  A    between atoms: _533  and  _535
REMARK  210  A    between atoms: _535  and  _536
REMARK  211  A    between atoms: _535  and  _538
REMARK  212  A    between atoms: _538  and  _539
REMARK  213  A    between atoms: _542  and  _544
REMARK  214  A    between atoms: _544  and  _545
REMARK  215  A    between atoms: _544  and  _547
REMARK  216  A    between atoms: _550  and  _552
REMARK  217  A    between atoms: _552  and  _553
REMARK  218  A    between atoms: _556  and  _558
REMARK  219  A    between atoms: _558  and  _559
REMARK  220  A    between atoms: _558  and  _561
REMARK  221  A    between atoms: _561  and  _562
REMARK  222  A    between atoms: _564  and  _566
REMARK  223  A    between atoms: _566  and  _567
REMARK  224  A    between atoms: _566  and  _569
REMARK  225  A    between atoms: _569  and  _570
REMARK  226  A    between atoms: _572  and  _574
REMARK  227  A    between atoms: _574  and  _575
REMARK  228  A    between atoms: _574  and  _577
REMARK  229  A    between atoms: _577  and  _578
REMARK  230  A    between atoms: _581  and  _583
REMARK  231  A    between atoms: _583  and  _584
REMARK  232  A    between atoms: _583  and  _586
REMARK  233  A    between atoms: _586  and  _587
REMARK  234  A    between atoms: _592  and  _593
REMARK  235  A    between atoms: _595  and  _597
REMARK  236  A    between atoms: _597  and  _598
REMARK  237  A    between atoms: _597  and  _600
REMARK  238  A    between atoms: _600  and  _601
REMARK  239  A    between atoms: _607  and  _609
REMARK  240  A    between atoms: _609  and  _610
REMARK  241  A    between atoms: _609  and  _612
REMARK  242  A    between atoms: _612  and  _613
REMARK  243  A    between atoms: _615  and  _617
REMARK  244  A    between atoms: _617  and  _618
REMARK  245  A    between atoms: _617  and  _620
REMARK  246  A    between atoms: _620  and  _621
REMARK  247  A    between atoms: _624  and  _626
REMARK  248  A    between atoms: _626  and  _627
REMARK  249  A    between atoms: _626  and  _629
REMARK  250  A    between atoms: _629  and  _630
REMARK  251  A    between atoms: _635  and  _636
REMARK                            x       y       z     vdW  Elec       q    Type
REMARK                         _______ _______ _______ _____ _____    ______ ____
ROOT
ATOM      1  C   MET A   5      14.591   8.753   3.254  0.00  0.00    +0.241 C 
ATOM      2  N   GLU A   6      15.242   8.401   4.370  0.00  0.00    -0.297 N 
ATOM      3  H   GLU A   6      15.130   7.433   4.734  0.00  0.00    +0.150 HD
ATOM      4  O   MET A   5      14.678   9.875   2.745  0.00  0.00    -0.273 OA
ENDROOT
BRANCH   2   5
ATOM      5  CA  GLU A   6      16.115   9.344   5.101  0.00  0.00    +0.149 C 
BRANCH   5   6
ATOM      6  C   GLU A   6      17.238   9.908   4.217  0.00  0.00    +0.241 C 
ATOM      7  O   GLU A   6      17.593  11.089   4.330  0.00  0.00    -0.273 OA
ATOM      8  N   TYR A   7      17.771   9.068   3.330  0.00  0.00    -0.297 N 
ATOM      9  H   TYR A   7      17.372   8.111   3.245  0.00  0.00    +0.150 HD
BRANCH   8  10
ATOM     10  CA  TYR A   7      18.901   9.442   2.468  0.00  0.00    +0.153 C 
BRANCH  10  11
ATOM     11  C   TYR A   7      18.480  10.309   1.263  0.00  0.00    +0.241 C 
ATOM     12  O   TYR A   7      19.130  11.313   0.959  0.00  0.00    -0.273 OA
ATOM     13  N   VAL A   8      17.381   9.931   0.607  0.00  0.00    -0.297 N 
ATOM     14  H   VAL A   8      16.946   9.016   0.843  0.00  0.00    +0.150 HD
BRANCH  13  15
ATOM     15  CA  VAL A   8      16.761  10.763  -0.439  0.00  0.00    +0.149 C 
BRANCH  15  16
ATOM     16  C   VAL A   8      16.396  12.150   0.128  0.00  0.00    +0.241 C 
ATOM     17  N   ASP A   9      15.854  12.175   1.351  0.00  0.00    -0.298 N 
ATOM     18  H   ASP A   9      15.647  11.275   1.828  0.00  0.00    +0.150 HD
ATOM     19  O   VAL A   8      16.641  13.174  -0.522  0.00  0.00    -0.273 OA
BRANCH  17  20
ATOM     20  CA  ASP A   9      15.542  13.436   2.042  0.00  0.00    +0.148 C 
BRANCH  20  21
ATOM     21  C   ASP A   9      16.792  14.275   2.348  0.00  0.00    +0.227 C 
ATOM     22  O   ASP A   9      16.798  15.487   2.109  0.00  0.00    -0.286 OA
ENDBRANCH  20  21
BRANCH  20  23
ATOM     23  CB  ASP A   9      14.694  13.208   3.310  0.00  0.00    +0.142 C 
BRANCH  23  24
ATOM     24  CG  ASP A   9      13.247  12.793   2.994  0.00  0.00    +0.367 C 
ATOM     25  OD2 ASP A   9      12.531  12.343   3.916  0.00  0.00    -0.246 OA
ATOM     26  OD1 ASP A   9      12.826  12.902   1.822  0.00  0.00    -0.246 OA
ENDBRANCH  23  24
ENDBRANCH  20  23
ENDBRANCH  17  20
ENDBRANCH  15  16
BRANCH  15  27
ATOM     27  CB  VAL A   8      15.529  10.054  -1.095  0.00  0.00    +0.027 C 
ATOM     28  CG2 VAL A   8      14.637  11.049  -1.852  0.00  0.00    +0.002 C 
ATOM     29  CG1 VAL A   8      15.984   8.933  -2.036  0.00  0.00    +0.002 C 
ENDBRANCH  15  27
ENDBRANCH  13  15
ENDBRANCH  10  11
BRANCH  10  30
ATOM     30  CB  TYR A   7      19.725   8.196   2.087  0.00  0.00    +0.055 C 
BRANCH  30  31
ATOM     31  CG  TYR A   7      20.256   7.506   3.338  0.00  0.00    -0.020 A 
ATOM     32  CD2 TYR A   7      19.499   6.533   4.000  0.00  0.00    -0.001 A 
ATOM     33  CE2 TYR A   7      19.960   5.932   5.179  0.00  0.00    +0.036 A 
ATOM     34  CZ  TYR A   7      21.193   6.312   5.708  0.00  0.00    +0.134 A 
ATOM     35  CE1 TYR A   7      21.959   7.284   5.077  0.00  0.00    +0.036 A 
ATOM     36  CD1 TYR A   7      21.484   7.881   3.898  0.00  0.00    -0.001 A 
BRANCH  34  37
ATOM     37  OH  TYR A   7      21.652   5.723   6.864  0.00  0.00    -0.506 OA
ATOM     38  HH  TYR A   7      21.011   5.895   7.598  0.00  0.00    +0.292 HD
ENDBRANCH  34  37
ENDBRANCH  30  31
ENDBRANCH  10  30
ENDBRANCH   8  10
ENDBRANCH   5   6
BRANCH   5  39
ATOM     39  CB  GLU A   6      16.705   8.717   6.380  0.00  0.00    +0.041 C 
BRANCH  39  40
ATOM     40  CG  GLU A   6      15.730   8.609   7.579  0.00  0.00    +0.116 C 
BRANCH  40  41
ATOM     41  CD  GLU A   6      14.971   7.286   7.630  0.00  0.00    +0.365 C 
ATOM     42  OE2 GLU A   6      14.381   6.966   8.694  0.00  0.00    -0.246 OA
ATOM     43  OE1 GLU A   6      14.958   6.560   6.613  0.00  0.00    -0.246 OA
ENDBRANCH  40  41
ENDBRANCH  39  40
ENDBRANCH   5  39
ENDBRANCH   2   5
BRANCH   1  44
ATOM     44  CA  MET A   5      13.697   7.696   2.596  0.00  0.00    +0.149 C 
BRANCH  44  46
ATOM     45  C   SER A   4      15.551   6.298   1.761  0.00  0.00    +0.243 C 
ATOM     46  N   MET A   5      14.363   6.404   2.364  0.00  0.00    -0.297 N 
ATOM     47  H   MET A   5      13.888   5.536   2.683  0.00  0.00    +0.150 HD
ATOM     48  O   SER A   4      16.185   7.262   1.334  0.00  0.00    -0.273 OA
BRANCH  45  49
ATOM     49  CA  SER A   4      16.125   4.889   1.615  0.00  0.00    +0.178 C 
BRANCH  49  52
ATOM     50  C   GLY A   3      15.879   4.110   3.942  0.00  0.00    +0.243 C 
ATOM     51  O   GLY A   3      16.537   5.054   4.404  0.00  0.00    -0.273 OA
ATOM     52  N   SER A   4      15.639   3.947   2.637  0.00  0.00    -0.295 N 
ATOM     53  H   SER A   4      15.086   3.121   2.331  0.00  0.00    +0.150 HD
BRANCH  50  54
ATOM     54  CA  GLY A   3      15.287   3.058   4.872  0.00  0.00    +0.176 C 
BRANCH  54  57
ATOM     55  C   ASP A   2      13.539   3.067   6.609  0.00  0.00    +0.241 C 
ATOM     56  O   ASP A   2      13.029   2.014   6.188  0.00  0.00    -0.273 OA
ATOM     57  N   GLY A   3      14.604   3.639   6.039  0.00  0.00    -0.295 N 
ATOM     58  H   GLY A   3      14.964   4.530   6.436  0.00  0.00    +0.150 HD
BRANCH  55  59
ATOM     59  CA  ASP A   2      12.970   3.763   7.859  0.00  0.00    +0.160 C 
BRANCH  59  62
ATOM     60  C   ASP A   1      15.073   3.457   9.192  0.00  0.00    +0.239 C 
ATOM     61  O   ASP A   1      15.053   2.222   9.225  0.00  0.00    -0.274 OA
ATOM     62  N   ASP A   2      14.075   4.218   8.727  0.00  0.00    -0.297 N 
ATOM     63  H   ASP A   2      14.078   5.221   9.002  0.00  0.00    +0.150 HD
BRANCH  60  64
ATOM     64  CA  ASP A   1      16.297   4.228   9.707  0.00  0.00    +0.156 C 
BRANCH  64  65
ATOM     65  N   ASP A   1      16.780   3.771  11.030  0.00  0.00    -0.238 NA
ATOM     66  H   ASP A   1      17.755   3.418  11.115  0.00  0.00    +0.142 HD
ENDBRANCH  64  65
BRANCH  64  67
ATOM     67  CB  ASP A   1      17.395   4.100   8.641  0.00  0.00    +0.140 C 
BRANCH  67  68
ATOM     68  CG  ASP A   1      18.416   5.222   8.689  0.00  0.00    +0.367 C 
ATOM     69  OD2 ASP A   1      18.034   6.399   8.865  0.00  0.00    -0.246 OA
ATOM     70  OD1 ASP A   1      19.612   4.919   8.505  0.00  0.00    -0.246 OA
ENDBRANCH  67  68
ENDBRANCH  64  67
ENDBRANCH  60  64
ENDBRANCH  59  62
BRANCH  59  71
ATOM     71  CB  ASP A   2      12.107   4.999   7.491  0.00  0.00    +0.143 C 
BRANCH  71  72
ATOM     72  CG  ASP A   2      10.819   4.663   6.716  0.00  0.00    +0.367 C 
ATOM     73  OD2 ASP A   2       9.778   4.339   7.336  0.00  0.00    -0.246 OA
ATOM     74  OD1 ASP A   2      10.830   4.804   5.476  0.00  0.00    -0.246 OA
ENDBRANCH  71  72
ENDBRANCH  59  71
ENDBRANCH  55  59
ENDBRANCH  54  57
ENDBRANCH  50  54
ENDBRANCH  49  52
BRANCH  49  75
ATOM     75  CB  SER A   4      15.861   4.368   0.194  0.00  0.00    +0.166 C 
BRANCH  75  76
ATOM     76  OG  SER A   4      14.472   4.246  -0.075  0.00  0.00    -0.380 OA
ATOM     77  H   SER A   4      14.344   3.909  -0.997  0.00  0.00    +0.211 HD
ENDBRANCH  75  76
ENDBRANCH  49  75
ENDBRANCH  45  49
ENDBRANCH  44  46
BRANCH  44  78
ATOM     78  CB  MET A   5      12.401   7.524   3.410  0.00  0.00    +0.041 C 
BRANCH  78  79
ATOM     79  CG  MET A   5      11.632   8.829   3.648  0.00  0.00    +0.060 C 
BRANCH  79  80
ATOM     80  SD  MET A   5      10.016   8.564   4.428  0.00  0.00    -0.139 S 
ATOM     81  CE  MET A   5       9.095   8.037   2.998  0.00  0.00    +0.069 C 
ENDBRANCH  79  80
ENDBRANCH  78  79
ENDBRANCH  44  78
ENDBRANCH   1  44
TORSDOF 36
REMARK  Name = ../refined-set-2016/2ihj/2ihj_pocket.pdb
REMARK  251 active torsions:
REMARK  status: ('A' for Active; 'I' for Inactive)
REMARK    1  A    between atoms: _1  and  _3
REMARK    2  A    between atoms: _3  and  _4
REMARK    3  A    between atoms: _3  and  _6
REMARK    4  A    between atoms: _6  and  _7
REMARK    5  A    between atoms: _11  and  _12
REMARK    6  A    between atoms: _17  and  _19
REMARK    7  A    between atoms: _19  and  _20
REMARK    8  A    between atoms: _23  and  _25
REMARK    9  A    between atoms: _25  and  _26
REMARK   10  A    between atoms: _25  and  _28
REMARK   11  A    between atoms: _28  and  _29
REMARK   12  A    between atoms: _31  and  _33
REMARK   13  A    between atoms: _33  and  _34
REMARK   14  A    between atoms: _33  and  _36
REMARK   15  A    between atoms: _36  and  _37
REMARK   16  A    between atoms: _41  and  _42
REMARK   17  A    between atoms: _47  and  _49
REMARK   18  A    between atoms: _49  and  _50
REMARK   19  A    between atoms: _49  and  _52
REMARK   20  A    between atoms: _52  and  _53
REMARK   21  A    between atoms: _56  and  _58
REMARK   22  A    between atoms: _58  and  _59
REMARK   23  A    between atoms: _58  and  _61
REMARK   24  A    between atoms: _61  and  _62
REMARK   25  A    between atoms: _62  and  _63
REMARK   26  A    between atoms: _63  and  _64
REMARK   27  A    between atoms: _73  and  _75
REMARK   28  A    between atoms: _75  and  _76
REMARK   29  A    between atoms: _75  and  _78
REMARK   30  A    between atoms: _78  and  _79
REMARK   31  A    between atoms: _85  and  _87
REMARK   32  A    between atoms: _87  and  _88
REMARK   33  A    between atoms: _87  and  _90
REMARK   34  A    between atoms: _90  and  _91
REMARK   35  A    between atoms: _96  and  _98
REMARK   36  A    between atoms: _98  and  _99
REMARK   37  A    between atoms: _102  and  _104
REMARK   38  A    between atoms: _104  and  _105
REMARK   39  A    between atoms: _104  and  _107
REMARK   40  A    between atoms: _107  and  _108
REMARK   41  A    between atoms: _113  and  _115
REMARK   42  A    between atoms: _115  and  _116
REMARK   43  A    between atoms: _115  and  _118
REMARK   44  A    between atoms: _118  and  _119
REMARK   45  A    between atoms: _122  and  _124
REMARK   46  A    between atoms: _124  and  _125
REMARK   47  A    between atoms: _124  and  _127
REMARK   48  A    between atoms: _127  and  _128
REMARK   49  A    between atoms: _131  and  _133
REMARK   50  A    between atoms: _133  and  _134
REMARK   51  A    between atoms: _136  and  _138
REMARK   52  A    between atoms: _138  and  _139
REMARK   53  A    between atoms: _138  and  _141
REMARK   54  A    between atoms: _141  and  _142
REMARK   55  A    between atoms: _144  and  _146
REMARK   56  A    between atoms: _146  and  _147
REMARK   57  A    between atoms: _146  and  _149
REMARK   58  A    between atoms: _149  and  _150
REMARK   59  A    between atoms: _150  and  _151
REMARK   60  A    between atoms: _153  and  _155
REMARK   61  A    between atoms: _155  and  _156
REMARK   62  A    between atoms: _155  and  _158
REMARK   63  A    between atoms: _158  and  _159
REMARK   64  A    between atoms: _159  and  _160
REMARK   65  A    between atoms: _163  and  _165
REMARK   66  A    between atoms: _165  and  _166
REMARK   67  A    between atoms: _165  and  _168
REMARK   68  A    between atoms: _168  and  _169
REMARK   69  A    between atoms: _174  and  _175
REMARK   70  A    between atoms: _177  and  _179
REMARK   71  A    between atoms: _179  and  _180
REMARK   72  A    between atoms: _179  and  _182
REMARK   73  A    between atoms: _185  and  _187
REMARK   74  A    between atoms: _187  and  _188
REMARK   75  A    between atoms: _187  and  _190
REMARK   76  A    between atoms: _190  and  _191
REMARK   77  A    between atoms: _194  and  _196
REMARK   78  A    between atoms: _196  and  _197
REMARK   79  A    between atoms: _196  and  _199
REMARK   80  A    between atoms: _199  and  _200
REMARK   81  A    between atoms: _200  and  _201
REMARK   82  A    between atoms: _201  and  _202
REMARK   83  A    between atoms: _202  and  _203
REMARK   84  A    between atoms: _207  and  _209
REMARK   85  A    between atoms: _209  and  _210
REMARK   86  A    between atoms: _209  and  _212
REMARK   87  A    between atoms: _212  and  _213
REMARK   88  A    between atoms: _216  and  _218
REMARK   89  A    between atoms: _218  and  _219
REMARK   90  A    between atoms: _218  and  _221
REMARK   91  A    between atoms: _221  and  _222
REMARK   92  A    between atoms: _222  and  _223
REMARK   93  A    between atoms: _225  and  _227
REMARK   94  A    between atoms: _227  and  _228
REMARK   95  A    between atoms: _227  and  _230
REMARK   96  A    between atoms: _230  and  _231
REMARK   97  A    between atoms: _241  and  _243
REMARK   98  A    between atoms: _243  and  _244
REMARK   99  A    between atoms: _243  and  _246
REMARK  100  A    between atoms: _246  and  _247
REMARK  101  A    between atoms: _250  and  _252
REMARK  102  A    between atoms: _252  and  _253
REMARK  103  A    between atoms: _252  and  _255
REMARK  104  A    between atoms: _255  and  _256
REMARK  105  A    between atoms: _262  and  _264
REMARK  106  A    between atoms: _264  and  _265
REMARK  107  A    between atoms: _264  and  _267
REMARK  108  A    between atoms: _267  and  _268
REMARK  109  A    between atoms: _271  and  _273
REMARK  110  A    between atoms: _273  and  _274
REMARK  111  A    between atoms: _276  and  _278
REMARK  112  A    between atoms: _278  and  _279
REMARK  113  A    between atoms: _278  and  _281
REMARK  114  A    between atoms: _281  and  _282
REMARK  115  A    between atoms: _285  and  _287
REMARK  116  A    between atoms: _287  and  _288
REMARK  117  A    between atoms: _287  and  _290
REMARK  118  A    between atoms: _290  and  _291
REMARK  119  A    between atoms: _294  and  _296
REMARK  120  A    between atoms: _296  and  _297
REMARK  121  A    between atoms: _296  and  _299
REMARK  122  A    between atoms: _299  and  _300
REMARK  123  A    between atoms: _303  and  _305
REMARK  124  A    between atoms: _305  and  _306
REMARK  125  A    between atoms: _305  and  _308
REMARK  126  A    between atoms: _308  and  _309
REMARK  127  A    between atoms: _319  and  _321
REMARK  128  A    between atoms: _321  and  _322
REMARK  129  A    between atoms: _321  and  _324
REMARK  130  A    between atoms: _324  and  _325
REMARK  131  A    between atoms: _325  and  _326
REMARK  132  A    between atoms: _329  and  _331
REMARK  133  A    between atoms: _331  and  _332
REMARK  134  A    between atoms: _331  and  _334
REMARK  135  A    between atoms: _334  and  _335
REMARK  136  A    between atoms: _335  and  _336
REMARK  137  A    between atoms: _336  and  _337
REMARK  138  A    between atoms: _346  and  _348
REMARK  139  A    between atoms: _348  and  _349
REMARK  140  A    between atoms: _348  and  _351
REMARK  141  A    between atoms: _351  and  _352
REMARK  142  A    between atoms: _357  and  _358
REMARK  143  A    between atoms: _360  and  _362
REMARK  144  A    between atoms: _362  and  _363
REMARK  145  A    between atoms: _362  and  _365
REMARK  146  A    between atoms: _365  and  _366
REMARK  147  A    between atoms: _366  and  _367
REMARK  148  A    between atoms: _372  and  _374
REMARK  149  A    between atoms: _374  and  _375
REMARK  150  A    between atoms: _374  and  _377
REMARK  151  A    between atoms: _377  and  _378
REMARK  152  A    between atoms: _384  and  _386
REMARK  153  A    between atoms: _386  and  _387
REMARK  154  A    between atoms: _386  and  _389
REMARK  155  A    between atoms: _389  and  _390
REMARK  156  A    between atoms: _390  and  _391
REMARK  157  A    between atoms: _391  and  _392
REMARK  158  A    between atoms: _392  and  _393
REMARK  159  A    between atoms: _397  and  _399
REMARK  160  A    between atoms: _399  and  _400
REMARK  161  A    between atoms: _402  and  _404
REMARK  162  A    between atoms: _404  and  _405
REMARK  163  A    between atoms: _404  and  _407
REMARK  164  A    between atoms: _407  and  _408
REMARK  165  A    between atoms: _414  and  _415
REMARK  166  A    between atoms: _420  and  _422
REMARK  167  A    between atoms: _422  and  _423
REMARK  168  A    between atoms: _422  and  _425
REMARK  169  A    between atoms: _425  and  _426
REMARK  170  A    between atoms: _426  and  _427
REMARK  171  A    between atoms: _427  and  _428
REMARK  172  A    between atoms: _437  and  _439
REMARK  173  A    between atoms: _439  and  _440
REMARK  174  A    between atoms: _442  and  _444
REMARK  175  A    between atoms: _444  and  _445
REMARK  176  A    between atoms: _444  and  _447
REMARK  177  A    between atoms: _447  and  _448
REMARK  178  A    between atoms: _453  and  _455
REMARK  179  A    between atoms: _455  and  _456
REMARK  180  A    between atoms: _455  and  _458
REMARK  181  A    between atoms: _458  and  _459
REMARK  182  A    between atoms: _463  and  _464
REMARK  183  A    between atoms: _469  and  _471
REMARK  184  A    between atoms: _471  and  _472
REMARK  185  A    between atoms: _475  and  _477
REMARK  186  A    between atoms: _477  and  _478
REMARK  187  A    between atoms: _477  and  _480
REMARK  188  A    between atoms: _480  and  _481
REMARK  189  A    between atoms: _486  and  _488
REMARK  190  A    between atoms: _488  and  _489
REMARK  191  A    between atoms: _488  and  _491
REMARK  192  A    between atoms: _491  and  _492
REMARK  193  A    between atoms: _495  and  _497
REMARK  194  A    between atoms: _497  and  _498
REMARK  195  A    between atoms: _497  and  _500
REMARK  196  A    between atoms: _500  and  _501
REMARK  197  A    between atoms: _503  and  _505
REMARK  198  A    between atoms: _505  and  _506
REMARK  199  A    between atoms: _505  and  _508
REMARK  200  A    between atoms: _508  and  _509
REMARK  201  A    between atoms: _515  and  _517
REMARK  202  A    between atoms: _517  and  _518
REMARK  203  A    between atoms: _517  and  _520
REMARK  204  A    between atoms: _520  and  _521
REMARK  205  A    between atoms: _521  and  _522
REMARK  206  A    between atoms: _525  and  _527
REMARK  207  A    between atoms: _527  and  _528
REMARK  208  A    between atoms: _527  and  _530
REMARK  209  A    between atoms: _533  and  _535
REMARK  210  A    between atoms: _535  and  _536
REMARK  211  A    between atoms: _535  and  _538
REMARK  212  A    between atoms: _538  and  _539
REMARK  213  A    between atoms: _542  and  _544
REMARK  214  A    between atoms: _544  and  _545
REMARK  215  A    between atoms: _544  and  _547
REMARK  216  A    between atoms: _550  and  _552
REMARK  217  A    between atoms: _552  and  _553
REMARK  218  A    between atoms: _556  and  _558
REMARK  219  A    between atoms: _558  and  _559
REMARK  220  A    between atoms: _558  and  _561
REMARK  221  A    between atoms: _561  and  _562
REMARK  222  A    between atoms: _564  and  _566
REMARK  223  A    between atoms: _566  and  _567
REMARK  224  A    between atoms: _566  and  _569
REMARK  225  A    between atoms: _569  and  _570
REMARK  226  A    between atoms: _572  and  _574
REMARK  227  A    between atoms: _574  and  _575
REMARK  228  A    between atoms: _574  and  _577
REMARK  229  A    between atoms: _577  and  _578
REMARK  230  A    between atoms: _581  and  _583
REMARK  231  A    between atoms: _583  and  _584
REMARK  232  A    between atoms: _583  and  _586
REMARK  233  A    between atoms: _586  and  _587
REMARK  234  A    between atoms: _592  and  _593
REMARK  235  A    between atoms: _595  and  _597
REMARK  236  A    between atoms: _597  and  _598
REMARK  237  A    between atoms: _597  and  _600
REMARK  238  A    between atoms: _600  and  _601
REMARK  239  A    between atoms: _607  and  _609
REMARK  240  A    between atoms: _609  and  _610
REMARK  241  A    between atoms: _609  and  _612
REMARK  242  A    between atoms: _612  and  _613
REMARK  243  A    between atoms: _615  and  _617
REMARK  244  A    between atoms: _617  and  _618
REMARK  245  A    between atoms: _617  and  _620
REMARK  246  A    between atoms: _620  and  _621
REMARK  247  A    between atoms: _624  and  _626
REMARK  248  A    between atoms: _626  and  _627
REMARK  249  A    between atoms: _626  and  _629
REMARK  250  A    between atoms: _629  and  _630
REMARK  251  A    between atoms: _635  and  _636
REMARK                            x       y       z     vdW  Elec       q    Type
REMARK                         _______ _______ _______ _____ _____    ______ ____
ROOT
ATOM      1  CG  LYS A   1      15.513  16.321  -1.816  0.00  0.00    -0.000 C 
ENDROOT
BRANCH   1   2
ATOM      2  CB  LYS A   1      16.170  17.281  -0.827  0.00  0.00    +0.025 C 
BRANCH   2   3
ATOM      3  CA  LYS A   1      17.687  17.442  -1.008  0.00  0.00    +0.133 C 
BRANCH   3   4
ATOM      4  N   LYS A   1      18.376  16.191  -0.662  0.00  0.00    -0.239 NA
ATOM      5  H   LYS A   1      17.850  15.459  -0.143  0.00  0.00    +0.142 HD
ENDBRANCH   3   4
BRANCH   3   6
ATOM      6  C   LYS A   1      18.183  18.668  -0.219  0.00  0.00    +0.224 C 
ATOM      7  O   LYS A   1      17.875  19.812  -0.580  0.00  0.00    -0.287 OA
ENDBRANCH   3   6
ENDBRANCH   2   3
ENDBRANCH   1   2
BRANCH   1   8
ATOM      8  CD  LYS A   1      14.048  16.071  -1.464  0.00  0.00    -0.024 C 
BRANCH   8   9
ATOM      9  CE  LYS A   1      13.407  15.090  -2.436  0.00  0.00    -0.086 C 
BRANCH   9  10
ATOM     10  NZ  LYS A   1      11.941  14.914  -2.181  0.00  0.00    +0.380 N 
ATOM     11  HZ1 LYS A   1      11.799  14.552  -1.216  0.00  0.00    -0.089 HD
ATOM     12  HZ2 LYS A   1      11.460  15.831  -2.283  0.00  0.00    -0.089 HD
ATOM     13  HZ3 LYS A   1      11.550  14.238  -2.867  0.00  0.00    -0.089 HD
ENDBRANCH   9  10
ENDBRANCH   8   9
ENDBRANCH   1   8
TORSDOF 7
REMARK  Name = ../refined-set-2016/2ihj/2ihj_pocket.pdb
REMARK  251 active torsions:
REMARK  status: ('A' for Active; 'I' for Inactive)
REMARK    1  A    between atoms: _1  and  _3
REMARK    2  A    between atoms: _3  and  _4
REMARK    3  A    between atoms: _3  and  _6
REMARK    4  A    between atoms: _6  and  _7
REMARK    5  A    between atoms: _11  and  _12
REMARK    6  A    between atoms: _17  and  _19
REMARK    7  A    between atoms: _19  and  _20
REMARK    8  A    between atoms: _23  and  _25
REMARK    9  A    between atoms: _25  and  _26
REMARK   10  A    between atoms: _25  and  _28
REMARK   11  A    between atoms: _28  and  _29
REMARK   12  A    between atoms: _31  and  _33
REMARK   13  A    between atoms: _33  and  _34
REMARK   14  A    between atoms: _33  and  _36
REMARK   15  A    between atoms: _36  and  _37
REMARK   16  A    between atoms: _41  and  _42
REMARK   17  A    between atoms: _47  and  _49
REMARK   18  A    between atoms: _49  and  _50
REMARK   19  A    between atoms: _49  and  _52
REMARK   20  A    between atoms: _52  and  _53
REMARK   21  A    between atoms: _56  and  _58
REMARK   22  A    between atoms: _58  and  _59
REMARK   23  A    between atoms: _58  and  _61
REMARK   24  A    between atoms: _61  and  _62
REMARK   25  A    between atoms: _62  and  _63
REMARK   26  A    between atoms: _63  and  _64
REMARK   27  A    between atoms: _73  and  _75
REMARK   28  A    between atoms: _75  and  _76
REMARK   29  A    between atoms: _75  and  _78
REMARK   30  A    between atoms: _78  and  _79
REMARK   31  A    between atoms: _85  and  _87
REMARK   32  A    between atoms: _87  and  _88
REMARK   33  A    between atoms: _87  and  _90
REMARK   34  A    between atoms: _90  and  _91
REMARK   35  A    between atoms: _96  and  _98
REMARK   36  A    between atoms: _98  and  _99
REMARK   37  A    between atoms: _102  and  _104
REMARK   38  A    between atoms: _104  and  _105
REMARK   39  A    between atoms: _104  and  _107
REMARK   40  A    between atoms: _107  and  _108
REMARK   41  A    between atoms: _113  and  _115
REMARK   42  A    between atoms: _115  and  _116
REMARK   43  A    between atoms: _115  and  _118
REMARK   44  A    between atoms: _118  and  _119
REMARK   45  A    between atoms: _122  and  _124
REMARK   46  A    between atoms: _124  and  _125
REMARK   47  A    between atoms: _124  and  _127
REMARK   48  A    between atoms: _127  and  _128
REMARK   49  A    between atoms: _131  and  _133
REMARK   50  A    between atoms: _133  and  _134
REMARK   51  A    between atoms: _136  and  _138
REMARK   52  A    between atoms: _138  and  _139
REMARK   53  A    between atoms: _138  and  _141
REMARK   54  A    between atoms: _141  and  _142
REMARK   55  A    between atoms: _144  and  _146
REMARK   56  A    between atoms: _146  and  _147
REMARK   57  A    between atoms: _146  and  _149
REMARK   58  A    between atoms: _149  and  _150
REMARK   59  A    between atoms: _150  and  _151
REMARK   60  A    between atoms: _153  and  _155
REMARK   61  A    between atoms: _155  and  _156
REMARK   62  A    between atoms: _155  and  _158
REMARK   63  A    between atoms: _158  and  _159
REMARK   64  A    between atoms: _159  and  _160
REMARK   65  A    between atoms: _163  and  _165
REMARK   66  A    between atoms: _165  and  _166
REMARK   67  A    between atoms: _165  and  _168
REMARK   68  A    between atoms: _168  and  _169
REMARK   69  A    between atoms: _174  and  _175
REMARK   70  A    between atoms: _177  and  _179
REMARK   71  A    between atoms: _179  and  _180
REMARK   72  A    between atoms: _179  and  _182
REMARK   73  A    between atoms: _185  and  _187
REMARK   74  A    between atoms: _187  and  _188
REMARK   75  A    between atoms: _187  and  _190
REMARK   76  A    between atoms: _190  and  _191
REMARK   77  A    between atoms: _194  and  _196
REMARK   78  A    between atoms: _196  and  _197
REMARK   79  A    between atoms: _196  and  _199
REMARK   80  A    between atoms: _199  and  _200
REMARK   81  A    between atoms: _200  and  _201
REMARK   82  A    between atoms: _201  and  _202
REMARK   83  A    between atoms: _202  and  _203
REMARK   84  A    between atoms: _207  and  _209
REMARK   85  A    between atoms: _209  and  _210
REMARK   86  A    between atoms: _209  and  _212
REMARK   87  A    between atoms: _212  and  _213
REMARK   88  A    between atoms: _216  and  _218
REMARK   89  A    between atoms: _218  and  _219
REMARK   90  A    between atoms: _218  and  _221
REMARK   91  A    between atoms: _221  and  _222
REMARK   92  A    between atoms: _222  and  _223
REMARK   93  A    between atoms: _225  and  _227
REMARK   94  A    between atoms: _227  and  _228
REMARK   95  A    between atoms: _227  and  _230
REMARK   96  A    between atoms: _230  and  _231
REMARK   97  A    between atoms: _241  and  _243
REMARK   98  A    between atoms: _243  and  _244
REMARK   99  A    between atoms: _243  and  _246
REMARK  100  A    between atoms: _246  and  _247
REMARK  101  A    between atoms: _250  and  _252
REMARK  102  A    between atoms: _252  and  _253
REMARK  103  A    between atoms: _252  and  _255
REMARK  104  A    between atoms: _255  and  _256
REMARK  105  A    between atoms: _262  and  _264
REMARK  106  A    between atoms: _264  and  _265
REMARK  107  A    between atoms: _264  and  _267
REMARK  108  A    between atoms: _267  and  _268
REMARK  109  A    between atoms: _271  and  _273
REMARK  110  A    between atoms: _273  and  _274
REMARK  111  A    between atoms: _276  and  _278
REMARK  112  A    between atoms: _278  and  _279
REMARK  113  A    between atoms: _278  and  _281
REMARK  114  A    between atoms: _281  and  _282
REMARK  115  A    between atoms: _285  and  _287
REMARK  116  A    between atoms: _287  and  _288
REMARK  117  A    between atoms: _287  and  _290
REMARK  118  A    between atoms: _290  and  _291
REMARK  119  A    between atoms: _294  and  _296
REMARK  120  A    between atoms: _296  and  _297
REMARK  121  A    between atoms: _296  and  _299
REMARK  122  A    between atoms: _299  and  _300
REMARK  123  A    between atoms: _303  and  _305
REMARK  124  A    between atoms: _305  and  _306
REMARK  125  A    between atoms: _305  and  _308
REMARK  126  A    between atoms: _308  and  _309
REMARK  127  A    between atoms: _319  and  _321
REMARK  128  A    between atoms: _321  and  _322
REMARK  129  A    between atoms: _321  and  _324
REMARK  130  A    between atoms: _324  and  _325
REMARK  131  A    between atoms: _325  and  _326
REMARK  132  A    between atoms: _329  and  _331
REMARK  133  A    between atoms: _331  and  _332
REMARK  134  A    between atoms: _331  and  _334
REMARK  135  A    between atoms: _334  and  _335
REMARK  136  A    between atoms: _335  and  _336
REMARK  137  A    between atoms: _336  and  _337
REMARK  138  A    between atoms: _346  and  _348
REMARK  139  A    between atoms: _348  and  _349
REMARK  140  A    between atoms: _348  and  _351
REMARK  141  A    between atoms: _351  and  _352
REMARK  142  A    between atoms: _357  and  _358
REMARK  143  A    between atoms: _360  and  _362
REMARK  144  A    between atoms: _362  and  _363
REMARK  145  A    between atoms: _362  and  _365
REMARK  146  A    between atoms: _365  and  _366
REMARK  147  A    between atoms: _366  and  _367
REMARK  148  A    between atoms: _372  and  _374
REMARK  149  A    between atoms: _374  and  _375
REMARK  150  A    between atoms: _374  and  _377
REMARK  151  A    between atoms: _377  and  _378
REMARK  152  A    between atoms: _384  and  _386
REMARK  153  A    between atoms: _386  and  _387
REMARK  154  A    between atoms: _386  and  _389
REMARK  155  A    between atoms: _389  and  _390
REMARK  156  A    between atoms: _390  and  _391
REMARK  157  A    between atoms: _391  and  _392
REMARK  158  A    between atoms: _392  and  _393
REMARK  159  A    between atoms: _397  and  _399
REMARK  160  A    between atoms: _399  and  _400
REMARK  161  A    between atoms: _402  and  _404
REMARK  162  A    between atoms: _404  and  _405
REMARK  163  A    between atoms: _404  and  _407
REMARK  164  A    between atoms: _407  and  _408
REMARK  165  A    between atoms: _414  and  _415
REMARK  166  A    between atoms: _420  and  _422
REMARK  167  A    between atoms: _422  and  _423
REMARK  168  A    between atoms: _422  and  _425
REMARK  169  A    between atoms: _425  and  _426
REMARK  170  A    between atoms: _426  and  _427
REMARK  171  A    between atoms: _427  and  _428
REMARK  172  A    between atoms: _437  and  _439
REMARK  173  A    between atoms: _439  and  _440
REMARK  174  A    between atoms: _442  and  _444
REMARK  175  A    between atoms: _444  and  _445
REMARK  176  A    between atoms: _444  and  _447
REMARK  177  A    between atoms: _447  and  _448
REMARK  178  A    between atoms: _453  and  _455
REMARK  179  A    between atoms: _455  and  _456
REMARK  180  A    between atoms: _455  and  _458
REMARK  181  A    between atoms: _458  and  _459
REMARK  182  A    between atoms: _463  and  _464
REMARK  183  A    between atoms: _469  and  _471
REMARK  184  A    between atoms: _471  and  _472
REMARK  185  A    between atoms: _475  and  _477
REMARK  186  A    between atoms: _477  and  _478
REMARK  187  A    between atoms: _477  and  _480
REMARK  188  A    between atoms: _480  and  _481
REMARK  189  A    between atoms: _486  and  _488
REMARK  190  A    between atoms: _488  and  _489
REMARK  191  A    between atoms: _488  and  _491
REMARK  192  A    between atoms: _491  and  _492
REMARK  193  A    between atoms: _495  and  _497
REMARK  194  A    between atoms: _497  and  _498
REMARK  195  A    between atoms: _497  and  _500
REMARK  196  A    between atoms: _500  and  _501
REMARK  197  A    between atoms: _503  and  _505
REMARK  198  A    between atoms: _505  and  _506
REMARK  199  A    between atoms: _505  and  _508
REMARK  200  A    between atoms: _508  and  _509
REMARK  201  A    between atoms: _515  and  _517
REMARK  202  A    between atoms: _517  and  _518
REMARK  203  A    between atoms: _517  and  _520
REMARK  204  A    between atoms: _520  and  _521
REMARK  205  A    between atoms: _521  and  _522
REMARK  206  A    between atoms: _525  and  _527
REMARK  207  A    between atoms: _527  and  _528
REMARK  208  A    between atoms: _527  and  _530
REMARK  209  A    between atoms: _533  and  _535
REMARK  210  A    between atoms: _535  and  _536
REMARK  211  A    between atoms: _535  and  _538
REMARK  212  A    between atoms: _538  and  _539
REMARK  213  A    between atoms: _542  and  _544
REMARK  214  A    between atoms: _544  and  _545
REMARK  215  A    between atoms: _544  and  _547
REMARK  216  A    between atoms: _550  and  _552
REMARK  217  A    between atoms: _552  and  _553
REMARK  218  A    between atoms: _556  and  _558
REMARK  219  A    between atoms: _558  and  _559
REMARK  220  A    between atoms: _558  and  _561
REMARK  221  A    between atoms: _561  and  _562
REMARK  222  A    between atoms: _564  and  _566
REMARK  223  A    between atoms: _566  and  _567
REMARK  224  A    between atoms: _566  and  _569
REMARK  225  A    between atoms: _569  and  _570
REMARK  226  A    between atoms: _572  and  _574
REMARK  227  A    between atoms: _574  and  _575
REMARK  228  A    between atoms: _574  and  _577
REMARK  229  A    between atoms: _577  and  _578
REMARK  230  A    between atoms: _581  and  _583
REMARK  231  A    between atoms: _583  and  _584
REMARK  232  A    between atoms: _583  and  _586
REMARK  233  A    between atoms: _586  and  _587
REMARK  234  A    between atoms: _592  and  _593
REMARK  235  A    between atoms: _595  and  _597
REMARK  236  A    between atoms: _597  and  _598
REMARK  237  A    between atoms: _597  and  _600
REMARK  238  A    between atoms: _600  and  _601
REMARK  239  A    between atoms: _607  and  _609
REMARK  240  A    between atoms: _609  and  _610
REMARK  241  A    between atoms: _609  and  _612
REMARK  242  A    between atoms: _612  and  _613
REMARK  243  A    between atoms: _615  and  _617
REMARK  244  A    between atoms: _617  and  _618
REMARK  245  A    between atoms: _617  and  _620
REMARK  246  A    between atoms: _620  and  _621
REMARK  247  A    between atoms: _624  and  _626
REMARK  248  A    between atoms: _626  and  _627
REMARK  249  A    between atoms: _626  and  _629
REMARK  250  A    between atoms: _629  and  _630
REMARK  251  A    between atoms: _635  and  _636
REMARK                            x       y       z     vdW  Elec       q    Type
REMARK                         _______ _______ _______ _____ _____    ______ ____
ROOT
ATOM      1  CA  LEU A   1      21.598   1.858   7.199  0.00  0.00    +0.133 C 
ENDROOT
BRANCH   1   2
ATOM      2  N   LEU A   1      21.450   2.743   8.360  0.00  0.00    -0.239 NA
ATOM      3  H   LEU A   1      20.670   3.431   8.365  0.00  0.00    +0.142 HD
ENDBRANCH   1   2
BRANCH   1   4
ATOM      4  C   LEU A   1      22.919   2.094   6.444  0.00  0.00    +0.224 C 
ATOM      5  O   LEU A   1      23.535   1.146   5.935  0.00  0.00    -0.287 OA
ENDBRANCH   1   4
BRANCH   1   6
ATOM      6  CB  LEU A   1      20.398   2.022   6.251  0.00  0.00    +0.025 C 
BRANCH   6   7
ATOM      7  CG  LEU A   1      20.348   1.253   4.921  0.00  0.00    +0.002 C 
ATOM      8  CD2 LEU A   1      20.368  -0.266   5.141  0.00  0.00    +0.000 C 
ATOM      9  CD1 LEU A   1      19.127   1.670   4.099  0.00  0.00    +0.000 C 
ENDBRANCH   6   7
ENDBRANCH   1   6
TORSDOF 4
REMARK  Name = ../refined-set-2016/2ihj/2ihj_pocket.pdb
REMARK  251 active torsions:
REMARK  status: ('A' for Active; 'I' for Inactive)
REMARK    1  A    between atoms: _1  and  _3
REMARK    2  A    between atoms: _3  and  _4
REMARK    3  A    between atoms: _3  and  _6
REMARK    4  A    between atoms: _6  and  _7
REMARK    5  A    between atoms: _11  and  _12
REMARK    6  A    between atoms: _17  and  _19
REMARK    7  A    between atoms: _19  and  _20
REMARK    8  A    between atoms: _23  and  _25
REMARK    9  A    between atoms: _25  and  _26
REMARK   10  A    between atoms: _25  and  _28
REMARK   11  A    between atoms: _28  and  _29
REMARK   12  A    between atoms: _31  and  _33
REMARK   13  A    between atoms: _33  and  _34
REMARK   14  A    between atoms: _33  and  _36
REMARK   15  A    between atoms: _36  and  _37
REMARK   16  A    between atoms: _41  and  _42
REMARK   17  A    between atoms: _47  and  _49
REMARK   18  A    between atoms: _49  and  _50
REMARK   19  A    between atoms: _49  and  _52
REMARK   20  A    between atoms: _52  and  _53
REMARK   21  A    between atoms: _56  and  _58
REMARK   22  A    between atoms: _58  and  _59
REMARK   23  A    between atoms: _58  and  _61
REMARK   24  A    between atoms: _61  and  _62
REMARK   25  A    between atoms: _62  and  _63
REMARK   26  A    between atoms: _63  and  _64
REMARK   27  A    between atoms: _73  and  _75
REMARK   28  A    between atoms: _75  and  _76
REMARK   29  A    between atoms: _75  and  _78
REMARK   30  A    between atoms: _78  and  _79
REMARK   31  A    between atoms: _85  and  _87
REMARK   32  A    between atoms: _87  and  _88
REMARK   33  A    between atoms: _87  and  _90
REMARK   34  A    between atoms: _90  and  _91
REMARK   35  A    between atoms: _96  and  _98
REMARK   36  A    between atoms: _98  and  _99
REMARK   37  A    between atoms: _102  and  _104
REMARK   38  A    between atoms: _104  and  _105
REMARK   39  A    between atoms: _104  and  _107
REMARK   40  A    between atoms: _107  and  _108
REMARK   41  A    between atoms: _113  and  _115
REMARK   42  A    between atoms: _115  and  _116
REMARK   43  A    between atoms: _115  and  _118
REMARK   44  A    between atoms: _118  and  _119
REMARK   45  A    between atoms: _122  and  _124
REMARK   46  A    between atoms: _124  and  _125
REMARK   47  A    between atoms: _124  and  _127
REMARK   48  A    between atoms: _127  and  _128
REMARK   49  A    between atoms: _131  and  _133
REMARK   50  A    between atoms: _133  and  _134
REMARK   51  A    between atoms: _136  and  _138
REMARK   52  A    between atoms: _138  and  _139
REMARK   53  A    between atoms: _138  and  _141
REMARK   54  A    between atoms: _141  and  _142
REMARK   55  A    between atoms: _144  and  _146
REMARK   56  A    between atoms: _146  and  _147
REMARK   57  A    between atoms: _146  and  _149
REMARK   58  A    between atoms: _149  and  _150
REMARK   59  A    between atoms: _150  and  _151
REMARK   60  A    between atoms: _153  and  _155
REMARK   61  A    between atoms: _155  and  _156
REMARK   62  A    between atoms: _155  and  _158
REMARK   63  A    between atoms: _158  and  _159
REMARK   64  A    between atoms: _159  and  _160
REMARK   65  A    between atoms: _163  and  _165
REMARK   66  A    between atoms: _165  and  _166
REMARK   67  A    between atoms: _165  and  _168
REMARK   68  A    between atoms: _168  and  _169
REMARK   69  A    between atoms: _174  and  _175
REMARK   70  A    between atoms: _177  and  _179
REMARK   71  A    between atoms: _179  and  _180
REMARK   72  A    between atoms: _179  and  _182
REMARK   73  A    between atoms: _185  and  _187
REMARK   74  A    between atoms: _187  and  _188
REMARK   75  A    between atoms: _187  and  _190
REMARK   76  A    between atoms: _190  and  _191
REMARK   77  A    between atoms: _194  and  _196
REMARK   78  A    between atoms: _196  and  _197
REMARK   79  A    between atoms: _196  and  _199
REMARK   80  A    between atoms: _199  and  _200
REMARK   81  A    between atoms: _200  and  _201
REMARK   82  A    between atoms: _201  and  _202
REMARK   83  A    between atoms: _202  and  _203
REMARK   84  A    between atoms: _207  and  _209
REMARK   85  A    between atoms: _209  and  _210
REMARK   86  A    between atoms: _209  and  _212
REMARK   87  A    between atoms: _212  and  _213
REMARK   88  A    between atoms: _216  and  _218
REMARK   89  A    between atoms: _218  and  _219
REMARK   90  A    between atoms: _218  and  _221
REMARK   91  A    between atoms: _221  and  _222
REMARK   92  A    between atoms: _222  and  _223
REMARK   93  A    between atoms: _225  and  _227
REMARK   94  A    between atoms: _227  and  _228
REMARK   95  A    between atoms: _227  and  _230
REMARK   96  A    between atoms: _230  and  _231
REMARK   97  A    between atoms: _241  and  _243
REMARK   98  A    between atoms: _243  and  _244
REMARK   99  A    between atoms: _243  and  _246
REMARK  100  A    between atoms: _246  and  _247
REMARK  101  A    between atoms: _250  and  _252
REMARK  102  A    between atoms: _252  and  _253
REMARK  103  A    between atoms: _252  and  _255
REMARK  104  A    between atoms: _255  and  _256
REMARK  105  A    between atoms: _262  and  _264
REMARK  106  A    between atoms: _264  and  _265
REMARK  107  A    between atoms: _264  and  _267
REMARK  108  A    between atoms: _267  and  _268
REMARK  109  A    between atoms: _271  and  _273
REMARK  110  A    between atoms: _273  and  _274
REMARK  111  A    between atoms: _276  and  _278
REMARK  112  A    between atoms: _278  and  _279
REMARK  113  A    between atoms: _278  and  _281
REMARK  114  A    between atoms: _281  and  _282
REMARK  115  A    between atoms: _285  and  _287
REMARK  116  A    between atoms: _287  and  _288
REMARK  117  A    between atoms: _287  and  _290
REMARK  118  A    between atoms: _290  and  _291
REMARK  119  A    between atoms: _294  and  _296
REMARK  120  A    between atoms: _296  and  _297
REMARK  121  A    between atoms: _296  and  _299
REMARK  122  A    between atoms: _299  and  _300
REMARK  123  A    between atoms: _303  and  _305
REMARK  124  A    between atoms: _305  and  _306
REMARK  125  A    between atoms: _305  and  _308
REMARK  126  A    between atoms: _308  and  _309
REMARK  127  A    between atoms: _319  and  _321
REMARK  128  A    between atoms: _321  and  _322
REMARK  129  A    between atoms: _321  and  _324
REMARK  130  A    between atoms: _324  and  _325
REMARK  131  A    between atoms: _325  and  _326
REMARK  132  A    between atoms: _329  and  _331
REMARK  133  A    between atoms: _331  and  _332
REMARK  134  A    between atoms: _331  and  _334
REMARK  135  A    between atoms: _334  and  _335
REMARK  136  A    between atoms: _335  and  _336
REMARK  137  A    between atoms: _336  and  _337
REMARK  138  A    between atoms: _346  and  _348
REMARK  139  A    between atoms: _348  and  _349
REMARK  140  A    between atoms: _348  and  _351
REMARK  141  A    between atoms: _351  and  _352
REMARK  142  A    between atoms: _357  and  _358
REMARK  143  A    between atoms: _360  and  _362
REMARK  144  A    between atoms: _362  and  _363
REMARK  145  A    between atoms: _362  and  _365
REMARK  146  A    between atoms: _365  and  _366
REMARK  147  A    between atoms: _366  and  _367
REMARK  148  A    between atoms: _372  and  _374
REMARK  149  A    between atoms: _374  and  _375
REMARK  150  A    between atoms: _374  and  _377
REMARK  151  A    between atoms: _377  and  _378
REMARK  152  A    between atoms: _384  and  _386
REMARK  153  A    between atoms: _386  and  _387
REMARK  154  A    between atoms: _386  and  _389
REMARK  155  A    between atoms: _389  and  _390
REMARK  156  A    between atoms: _390  and  _391
REMARK  157  A    between atoms: _391  and  _392
REMARK  158  A    between atoms: _392  and  _393
REMARK  159  A    between atoms: _397  and  _399
REMARK  160  A    between atoms: _399  and  _400
REMARK  161  A    between atoms: _402  and  _404
REMARK  162  A    between atoms: _404  and  _405
REMARK  163  A    between atoms: _404  and  _407
REMARK  164  A    between atoms: _407  and  _408
REMARK  165  A    between atoms: _414  and  _415
REMARK  166  A    between atoms: _420  and  _422
REMARK  167  A    between atoms: _422  and  _423
REMARK  168  A    between atoms: _422  and  _425
REMARK  169  A    between atoms: _425  and  _426
REMARK  170  A    between atoms: _426  and  _427
REMARK  171  A    between atoms: _427  and  _428
REMARK  172  A    between atoms: _437  and  _439
REMARK  173  A    between atoms: _439  and  _440
REMARK  174  A    between atoms: _442  and  _444
REMARK  175  A    between atoms: _444  and  _445
REMARK  176  A    between atoms: _444  and  _447
REMARK  177  A    between atoms: _447  and  _448
REMARK  178  A    between atoms: _453  and  _455
REMARK  179  A    between atoms: _455  and  _456
REMARK  180  A    between atoms: _455  and  _458
REMARK  181  A    between atoms: _458  and  _459
REMARK  182  A    between atoms: _463  and  _464
REMARK  183  A    between atoms: _469  and  _471
REMARK  184  A    between atoms: _471  and  _472
REMARK  185  A    between atoms: _475  and  _477
REMARK  186  A    between atoms: _477  and  _478
REMARK  187  A    between atoms: _477  and  _480
REMARK  188  A    between atoms: _480  and  _481
REMARK  189  A    between atoms: _486  and  _488
REMARK  190  A    between atoms: _488  and  _489
REMARK  191  A    between atoms: _488  and  _491
REMARK  192  A    between atoms: _491  and  _492
REMARK  193  A    between atoms: _495  and  _497
REMARK  194  A    between atoms: _497  and  _498
REMARK  195  A    between atoms: _497  and  _500
REMARK  196  A    between atoms: _500  and  _501
REMARK  197  A    between atoms: _503  and  _505
REMARK  198  A    between atoms: _505  and  _506
REMARK  199  A    between atoms: _505  and  _508
REMARK  200  A    between atoms: _508  and  _509
REMARK  201  A    between atoms: _515  and  _517
REMARK  202  A    between atoms: _517  and  _518
REMARK  203  A    between atoms: _517  and  _520
REMARK  204  A    between atoms: _520  and  _521
REMARK  205  A    between atoms: _521  and  _522
REMARK  206  A    between atoms: _525  and  _527
REMARK  207  A    between atoms: _527  and  _528
REMARK  208  A    between atoms: _527  and  _530
REMARK  209  A    between atoms: _533  and  _535
REMARK  210  A    between atoms: _535  and  _536
REMARK  211  A    between atoms: _535  and  _538
REMARK  212  A    between atoms: _538  and  _539
REMARK  213  A    between atoms: _542  and  _544
REMARK  214  A    between atoms: _544  and  _545
REMARK  215  A    between atoms: _544  and  _547
REMARK  216  A    between atoms: _550  and  _552
REMARK  217  A    between atoms: _552  and  _553
REMARK  218  A    between atoms: _556  and  _558
REMARK  219  A    between atoms: _558  and  _559
REMARK  220  A    between atoms: _558  and  _561
REMARK  221  A    between atoms: _561  and  _562
REMARK  222  A    between atoms: _564  and  _566
REMARK  223  A    between atoms: _566  and  _567
REMARK  224  A    between atoms: _566  and  _569
REMARK  225  A    between atoms: _569  and  _570
REMARK  226  A    between atoms: _572  and  _574
REMARK  227  A    between atoms: _574  and  _575
REMARK  228  A    between atoms: _574  and  _577
REMARK  229  A    between atoms: _577  and  _578
REMARK  230  A    between atoms: _581  and  _583
REMARK  231  A    between atoms: _583  and  _584
REMARK  232  A    between atoms: _583  and  _586
REMARK  233  A    between atoms: _586  and  _587
REMARK  234  A    between atoms: _592  and  _593
REMARK  235  A    between atoms: _595  and  _597
REMARK  236  A    between atoms: _597  and  _598
REMARK  237  A    between atoms: _597  and  _600
REMARK  238  A    between atoms: _600  and  _601
REMARK  239  A    between atoms: _607  and  _609
REMARK  240  A    between atoms: _609  and  _610
REMARK  241  A    between atoms: _609  and  _612
REMARK  242  A    between atoms: _612  and  _613
REMARK  243  A    between atoms: _615  and  _617
REMARK  244  A    between atoms: _617  and  _618
REMARK  245  A    between atoms: _617  and  _620
REMARK  246  A    between atoms: _620  and  _621
REMARK  247  A    between atoms: _624  and  _626
REMARK  248  A    between atoms: _626  and  _627
REMARK  249  A    between atoms: _626  and  _629
REMARK  250  A    between atoms: _629  and  _630
REMARK  251  A    between atoms: _635  and  _636
REMARK                            x       y       z     vdW  Elec       q    Type
REMARK                         _______ _______ _______ _____ _____    ______ ____
ROOT
ATOM      1  CA  MET A   1      22.941  -1.461  11.690  0.00  0.00    +0.134 C 
ENDROOT
BRANCH   1   2
ATOM      2  N   MET A   1      23.786  -0.291  11.427  0.00  0.00    -0.239 NA
ATOM      3  H   MET A   1      23.522   0.355  10.656  0.00  0.00    +0.142 HD
ENDBRANCH   1   2
BRANCH   1   4
ATOM      4  C   MET A   1      23.824  -2.702  11.646  0.00  0.00    +0.224 C 
ATOM      5  O   MET A   1      24.561  -2.914  10.679  0.00  0.00    -0.287 OA
ENDBRANCH   1   4
BRANCH   1   6
ATOM      6  CB  MET A   1      21.802  -1.585  10.663  0.00  0.00    +0.037 C 
BRANCH   6   7
ATOM      7  CG  MET A   1      20.630  -0.627  10.865  0.00  0.00    +0.059 C 
BRANCH   7   8
ATOM      8  SD  MET A   1      19.380  -0.699   9.547  0.00  0.00    -0.139 S 
ATOM      9  CE  MET A   1      18.291   0.625  10.068  0.00  0.00    +0.069 C 
ENDBRANCH   7   8
ENDBRANCH   6   7
ENDBRANCH   1   6
TORSDOF 5
REMARK  Name = ../refined-set-2016/2ihj/2ihj_pocket.pdb
REMARK  251 active torsions:
REMARK  status: ('A' for Active; 'I' for Inactive)
REMARK    1  A    between atoms: _1  and  _3
REMARK    2  A    between atoms: _3  and  _4
REMARK    3  A    between atoms: _3  and  _6
REMARK    4  A    between atoms: _6  and  _7
REMARK    5  A    between atoms: _11  and  _12
REMARK    6  A    between atoms: _17  and  _19
REMARK    7  A    between atoms: _19  and  _20
REMARK    8  A    between atoms: _23  and  _25
REMARK    9  A    between atoms: _25  and  _26
REMARK   10  A    between atoms: _25  and  _28
REMARK   11  A    between atoms: _28  and  _29
REMARK   12  A    between atoms: _31  and  _33
REMARK   13  A    between atoms: _33  and  _34
REMARK   14  A    between atoms: _33  and  _36
REMARK   15  A    between atoms: _36  and  _37
REMARK   16  A    between atoms: _41  and  _42
REMARK   17  A    between atoms: _47  and  _49
REMARK   18  A    between atoms: _49  and  _50
REMARK   19  A    between atoms: _49  and  _52
REMARK   20  A    between atoms: _52  and  _53
REMARK   21  A    between atoms: _56  and  _58
REMARK   22  A    between atoms: _58  and  _59
REMARK   23  A    between atoms: _58  and  _61
REMARK   24  A    between atoms: _61  and  _62
REMARK   25  A    between atoms: _62  and  _63
REMARK   26  A    between atoms: _63  and  _64
REMARK   27  A    between atoms: _73  and  _75
REMARK   28  A    between atoms: _75  and  _76
REMARK   29  A    between atoms: _75  and  _78
REMARK   30  A    between atoms: _78  and  _79
REMARK   31  A    between atoms: _85  and  _87
REMARK   32  A    between atoms: _87  and  _88
REMARK   33  A    between atoms: _87  and  _90
REMARK   34  A    between atoms: _90  and  _91
REMARK   35  A    between atoms: _96  and  _98
REMARK   36  A    between atoms: _98  and  _99
REMARK   37  A    between atoms: _102  and  _104
REMARK   38  A    between atoms: _104  and  _105
REMARK   39  A    between atoms: _104  and  _107
REMARK   40  A    between atoms: _107  and  _108
REMARK   41  A    between atoms: _113  and  _115
REMARK   42  A    between atoms: _115  and  _116
REMARK   43  A    between atoms: _115  and  _118
REMARK   44  A    between atoms: _118  and  _119
REMARK   45  A    between atoms: _122  and  _124
REMARK   46  A    between atoms: _124  and  _125
REMARK   47  A    between atoms: _124  and  _127
REMARK   48  A    between atoms: _127  and  _128
REMARK   49  A    between atoms: _131  and  _133
REMARK   50  A    between atoms: _133  and  _134
REMARK   51  A    between atoms: _136  and  _138
REMARK   52  A    between atoms: _138  and  _139
REMARK   53  A    between atoms: _138  and  _141
REMARK   54  A    between atoms: _141  and  _142
REMARK   55  A    between atoms: _144  and  _146
REMARK   56  A    between atoms: _146  and  _147
REMARK   57  A    between atoms: _146  and  _149
REMARK   58  A    between atoms: _149  and  _150
REMARK   59  A    between atoms: _150  and  _151
REMARK   60  A    between atoms: _153  and  _155
REMARK   61  A    between atoms: _155  and  _156
REMARK   62  A    between atoms: _155  and  _158
REMARK   63  A    between atoms: _158  and  _159
REMARK   64  A    between atoms: _159  and  _160
REMARK   65  A    between atoms: _163  and  _165
REMARK   66  A    between atoms: _165  and  _166
REMARK   67  A    between atoms: _165  and  _168
REMARK   68  A    between atoms: _168  and  _169
REMARK   69  A    between atoms: _174  and  _175
REMARK   70  A    between atoms: _177  and  _179
REMARK   71  A    between atoms: _179  and  _180
REMARK   72  A    between atoms: _179  and  _182
REMARK   73  A    between atoms: _185  and  _187
REMARK   74  A    between atoms: _187  and  _188
REMARK   75  A    between atoms: _187  and  _190
REMARK   76  A    between atoms: _190  and  _191
REMARK   77  A    between atoms: _194  and  _196
REMARK   78  A    between atoms: _196  and  _197
REMARK   79  A    between atoms: _196  and  _199
REMARK   80  A    between atoms: _199  and  _200
REMARK   81  A    between atoms: _200  and  _201
REMARK   82  A    between atoms: _201  and  _202
REMARK   83  A    between atoms: _202  and  _203
REMARK   84  A    between atoms: _207  and  _209
REMARK   85  A    between atoms: _209  and  _210
REMARK   86  A    between atoms: _209  and  _212
REMARK   87  A    between atoms: _212  and  _213
REMARK   88  A    between atoms: _216  and  _218
REMARK   89  A    between atoms: _218  and  _219
REMARK   90  A    between atoms: _218  and  _221
REMARK   91  A    between atoms: _221  and  _222
REMARK   92  A    between atoms: _222  and  _223
REMARK   93  A    between atoms: _225  and  _227
REMARK   94  A    between atoms: _227  and  _228
REMARK   95  A    between atoms: _227  and  _230
REMARK   96  A    between atoms: _230  and  _231
REMARK   97  A    between atoms: _241  and  _243
REMARK   98  A    between atoms: _243  and  _244
REMARK   99  A    between atoms: _243  and  _246
REMARK  100  A    between atoms: _246  and  _247
REMARK  101  A    between atoms: _250  and  _252
REMARK  102  A    between atoms: _252  and  _253
REMARK  103  A    between atoms: _252  and  _255
REMARK  104  A    between atoms: _255  and  _256
REMARK  105  A    between atoms: _262  and  _264
REMARK  106  A    between atoms: _264  and  _265
REMARK  107  A    between atoms: _264  and  _267
REMARK  108  A    between atoms: _267  and  _268
REMARK  109  A    between atoms: _271  and  _273
REMARK  110  A    between atoms: _273  and  _274
REMARK  111  A    between atoms: _276  and  _278
REMARK  112  A    between atoms: _278  and  _279
REMARK  113  A    between atoms: _278  and  _281
REMARK  114  A    between atoms: _281  and  _282
REMARK  115  A    between atoms: _285  and  _287
REMARK  116  A    between atoms: _287  and  _288
REMARK  117  A    between atoms: _287  and  _290
REMARK  118  A    between atoms: _290  and  _291
REMARK  119  A    between atoms: _294  and  _296
REMARK  120  A    between atoms: _296  and  _297
REMARK  121  A    between atoms: _296  and  _299
REMARK  122  A    between atoms: _299  and  _300
REMARK  123  A    between atoms: _303  and  _305
REMARK  124  A    between atoms: _305  and  _306
REMARK  125  A    between atoms: _305  and  _308
REMARK  126  A    between atoms: _308  and  _309
REMARK  127  A    between atoms: _319  and  _321
REMARK  128  A    between atoms: _321  and  _322
REMARK  129  A    between atoms: _321  and  _324
REMARK  130  A    between atoms: _324  and  _325
REMARK  131  A    between atoms: _325  and  _326
REMARK  132  A    between atoms: _329  and  _331
REMARK  133  A    between atoms: _331  and  _332
REMARK  134  A    between atoms: _331  and  _334
REMARK  135  A    between atoms: _334  and  _335
REMARK  136  A    between atoms: _335  and  _336
REMARK  137  A    between atoms: _336  and  _337
REMARK  138  A    between atoms: _346  and  _348
REMARK  139  A    between atoms: _348  and  _349
REMARK  140  A    between atoms: _348  and  _351
REMARK  141  A    between atoms: _351  and  _352
REMARK  142  A    between atoms: _357  and  _358
REMARK  143  A    between atoms: _360  and  _362
REMARK  144  A    between atoms: _362  and  _363
REMARK  145  A    between atoms: _362  and  _365
REMARK  146  A    between atoms: _365  and  _366
REMARK  147  A    between atoms: _366  and  _367
REMARK  148  A    between atoms: _372  and  _374
REMARK  149  A    between atoms: _374  and  _375
REMARK  150  A    between atoms: _374  and  _377
REMARK  151  A    between atoms: _377  and  _378
REMARK  152  A    between atoms: _384  and  _386
REMARK  153  A    between atoms: _386  and  _387
REMARK  154  A    between atoms: _386  and  _389
REMARK  155  A    between atoms: _389  and  _390
REMARK  156  A    between atoms: _390  and  _391
REMARK  157  A    between atoms: _391  and  _392
REMARK  158  A    between atoms: _392  and  _393
REMARK  159  A    between atoms: _397  and  _399
REMARK  160  A    between atoms: _399  and  _400
REMARK  161  A    between atoms: _402  and  _404
REMARK  162  A    between atoms: _404  and  _405
REMARK  163  A    between atoms: _404  and  _407
REMARK  164  A    between atoms: _407  and  _408
REMARK  165  A    between atoms: _414  and  _415
REMARK  166  A    between atoms: _420  and  _422
REMARK  167  A    between atoms: _422  and  _423
REMARK  168  A    between atoms: _422  and  _425
REMARK  169  A    between atoms: _425  and  _426
REMARK  170  A    between atoms: _426  and  _427
REMARK  171  A    between atoms: _427  and  _428
REMARK  172  A    between atoms: _437  and  _439
REMARK  173  A    between atoms: _439  and  _440
REMARK  174  A    between atoms: _442  and  _444
REMARK  175  A    between atoms: _444  and  _445
REMARK  176  A    between atoms: _444  and  _447
REMARK  177  A    between atoms: _447  and  _448
REMARK  178  A    between atoms: _453  and  _455
REMARK  179  A    between atoms: _455  and  _456
REMARK  180  A    between atoms: _455  and  _458
REMARK  181  A    between atoms: _458  and  _459
REMARK  182  A    between atoms: _463  and  _464
REMARK  183  A    between atoms: _469  and  _471
REMARK  184  A    between atoms: _471  and  _472
REMARK  185  A    between atoms: _475  and  _477
REMARK  186  A    between atoms: _477  and  _478
REMARK  187  A    between atoms: _477  and  _480
REMARK  188  A    between atoms: _480  and  _481
REMARK  189  A    between atoms: _486  and  _488
REMARK  190  A    between atoms: _488  and  _489
REMARK  191  A    between atoms: _488  and  _491
REMARK  192  A    between atoms: _491  and  _492
REMARK  193  A    between atoms: _495  and  _497
REMARK  194  A    between atoms: _497  and  _498
REMARK  195  A    between atoms: _497  and  _500
REMARK  196  A    between atoms: _500  and  _501
REMARK  197  A    between atoms: _503  and  _505
REMARK  198  A    between atoms: _505  and  _506
REMARK  199  A    between atoms: _505  and  _508
REMARK  200  A    between atoms: _508  and  _509
REMARK  201  A    between atoms: _515  and  _517
REMARK  202  A    between atoms: _517  and  _518
REMARK  203  A    between atoms: _517  and  _520
REMARK  204  A    between atoms: _520  and  _521
REMARK  205  A    between atoms: _521  and  _522
REMARK  206  A    between atoms: _525  and  _527
REMARK  207  A    between atoms: _527  and  _528
REMARK  208  A    between atoms: _527  and  _530
REMARK  209  A    between atoms: _533  and  _535
REMARK  210  A    between atoms: _535  and  _536
REMARK  211  A    between atoms: _535  and  _538
REMARK  212  A    between atoms: _538  and  _539
REMARK  213  A    between atoms: _542  and  _544
REMARK  214  A    between atoms: _544  and  _545
REMARK  215  A    between atoms: _544  and  _547
REMARK  216  A    between atoms: _550  and  _552
REMARK  217  A    between atoms: _552  and  _553
REMARK  218  A    between atoms: _556  and  _558
REMARK  219  A    between atoms: _558  and  _559
REMARK  220  A    between atoms: _558  and  _561
REMARK  221  A    between atoms: _561  and  _562
REMARK  222  A    between atoms: _564  and  _566
REMARK  223  A    between atoms: _566  and  _567
REMARK  224  A    between atoms: _566  and  _569
REMARK  225  A    between atoms: _569  and  _570
REMARK  226  A    between atoms: _572  and  _574
REMARK  227  A    between atoms: _574  and  _575
REMARK  228  A    between atoms: _574  and  _577
REMARK  229  A    between atoms: _577  and  _578
REMARK  230  A    between atoms: _581  and  _583
REMARK  231  A    between atoms: _583  and  _584
REMARK  232  A    between atoms: _583  and  _586
REMARK  233  A    between atoms: _586  and  _587
REMARK  234  A    between atoms: _592  and  _593
REMARK  235  A    between atoms: _595  and  _597
REMARK  236  A    between atoms: _597  and  _598
REMARK  237  A    between atoms: _597  and  _600
REMARK  238  A    between atoms: _600  and  _601
REMARK  239  A    between atoms: _607  and  _609
REMARK  240  A    between atoms: _609  and  _610
REMARK  241  A    between atoms: _609  and  _612
REMARK  242  A    between atoms: _612  and  _613
REMARK  243  A    between atoms: _615  and  _617
REMARK  244  A    between atoms: _617  and  _618
REMARK  245  A    between atoms: _617  and  _620
REMARK  246  A    between atoms: _620  and  _621
REMARK  247  A    between atoms: _624  and  _626
REMARK  248  A    between atoms: _626  and  _627
REMARK  249  A    between atoms: _626  and  _629
REMARK  250  A    between atoms: _629  and  _630
REMARK  251  A    between atoms: _635  and  _636
REMARK                            x       y       z     vdW  Elec       q    Type
REMARK                         _______ _______ _______ _____ _____    ______ ____
ROOT
ATOM      1  CG  TRP A   1      23.021  -6.213   8.452  0.00  0.00    -0.002 A 
ATOM      2  CD2 TRP A   1      21.617  -5.946   8.619  0.00  0.00    +0.013 A 
ATOM      3  CE3 TRP A   1      20.571  -6.609   9.277  0.00  0.00    +0.001 A 
ATOM      4  CZ3 TRP A   1      19.293  -6.048   9.241  0.00  0.00    +0.000 A 
ATOM      5  CH2 TRP A   1      19.048  -4.837   8.555  0.00  0.00    +0.001 A 
ATOM      6  CZ2 TRP A   1      20.052  -4.171   7.902  0.00  0.00    +0.017 A 
ATOM      7  CE2 TRP A   1      21.337  -4.734   7.941  0.00  0.00    +0.056 A 
ATOM      8  NE1 TRP A   1      22.512  -4.288   7.395  0.00  0.00    -0.352 N 
ATOM      9  HE1 TRP A   1      22.627  -3.417   6.838  0.00  0.00    +0.166 HD
ATOM     10  CD1 TRP A   1      23.516  -5.179   7.702  0.00  0.00    +0.068 A 
ENDROOT
BRANCH   1  11
ATOM     11  CB  TRP A   1      23.808  -7.406   8.997  0.00  0.00    +0.053 C 
BRANCH  11  12
ATOM     12  CA  TRP A   1      23.807  -7.535  10.534  0.00  0.00    +0.137 C 
BRANCH  12  13
ATOM     13  N   TRP A   1      24.372  -6.336  11.157  0.00  0.00    -0.239 NA
ATOM     14  H   TRP A   1      25.063  -5.770  10.624  0.00  0.00    +0.142 HD
ENDBRANCH  12  13
BRANCH  12  15
ATOM     15  C   TRP A   1      24.493  -8.841  10.983  0.00  0.00    +0.224 C 
ATOM     16  O   TRP A   1      24.126  -9.930  10.522  0.00  0.00    -0.287 OA
ENDBRANCH  12  15
ENDBRANCH  11  12
ENDBRANCH   1  11
TORSDOF 4
REMARK  Name = ../refined-set-2016/2ihj/2ihj_pocket.pdb
REMARK  251 active torsions:
REMARK  status: ('A' for Active; 'I' for Inactive)
REMARK    1  A    between atoms: _1  and  _3
REMARK    2  A    between atoms: _3  and  _4
REMARK    3  A    between atoms: _3  and  _6
REMARK    4  A    between atoms: _6  and  _7
REMARK    5  A    between atoms: _11  and  _12
REMARK    6  A    between atoms: _17  and  _19
REMARK    7  A    between atoms: _19  and  _20
REMARK    8  A    between atoms: _23  and  _25
REMARK    9  A    between atoms: _25  and  _26
REMARK   10  A    between atoms: _25  and  _28
REMARK   11  A    between atoms: _28  and  _29
REMARK   12  A    between atoms: _31  and  _33
REMARK   13  A    between atoms: _33  and  _34
REMARK   14  A    between atoms: _33  and  _36
REMARK   15  A    between atoms: _36  and  _37
REMARK   16  A    between atoms: _41  and  _42
REMARK   17  A    between atoms: _47  and  _49
REMARK   18  A    between atoms: _49  and  _50
REMARK   19  A    between atoms: _49  and  _52
REMARK   20  A    between atoms: _52  and  _53
REMARK   21  A    between atoms: _56  and  _58
REMARK   22  A    between atoms: _58  and  _59
REMARK   23  A    between atoms: _58  and  _61
REMARK   24  A    between atoms: _61  and  _62
REMARK   25  A    between atoms: _62  and  _63
REMARK   26  A    between atoms: _63  and  _64
REMARK   27  A    between atoms: _73  and  _75
REMARK   28  A    between atoms: _75  and  _76
REMARK   29  A    between atoms: _75  and  _78
REMARK   30  A    between atoms: _78  and  _79
REMARK   31  A    between atoms: _85  and  _87
REMARK   32  A    between atoms: _87  and  _88
REMARK   33  A    between atoms: _87  and  _90
REMARK   34  A    between atoms: _90  and  _91
REMARK   35  A    between atoms: _96  and  _98
REMARK   36  A    between atoms: _98  and  _99
REMARK   37  A    between atoms: _102  and  _104
REMARK   38  A    between atoms: _104  and  _105
REMARK   39  A    between atoms: _104  and  _107
REMARK   40  A    between atoms: _107  and  _108
REMARK   41  A    between atoms: _113  and  _115
REMARK   42  A    between atoms: _115  and  _116
REMARK   43  A    between atoms: _115  and  _118
REMARK   44  A    between atoms: _118  and  _119
REMARK   45  A    between atoms: _122  and  _124
REMARK   46  A    between atoms: _124  and  _125
REMARK   47  A    between atoms: _124  and  _127
REMARK   48  A    between atoms: _127  and  _128
REMARK   49  A    between atoms: _131  and  _133
REMARK   50  A    between atoms: _133  and  _134
REMARK   51  A    between atoms: _136  and  _138
REMARK   52  A    between atoms: _138  and  _139
REMARK   53  A    between atoms: _138  and  _141
REMARK   54  A    between atoms: _141  and  _142
REMARK   55  A    between atoms: _144  and  _146
REMARK   56  A    between atoms: _146  and  _147
REMARK   57  A    between atoms: _146  and  _149
REMARK   58  A    between atoms: _149  and  _150
REMARK   59  A    between atoms: _150  and  _151
REMARK   60  A    between atoms: _153  and  _155
REMARK   61  A    between atoms: _155  and  _156
REMARK   62  A    between atoms: _155  and  _158
REMARK   63  A    between atoms: _158  and  _159
REMARK   64  A    between atoms: _159  and  _160
REMARK   65  A    between atoms: _163  and  _165
REMARK   66  A    between atoms: _165  and  _166
REMARK   67  A    between atoms: _165  and  _168
REMARK   68  A    between atoms: _168  and  _169
REMARK   69  A    between atoms: _174  and  _175
REMARK   70  A    between atoms: _177  and  _179
REMARK   71  A    between atoms: _179  and  _180
REMARK   72  A    between atoms: _179  and  _182
REMARK   73  A    between atoms: _185  and  _187
REMARK   74  A    between atoms: _187  and  _188
REMARK   75  A    between atoms: _187  and  _190
REMARK   76  A    between atoms: _190  and  _191
REMARK   77  A    between atoms: _194  and  _196
REMARK   78  A    between atoms: _196  and  _197
REMARK   79  A    between atoms: _196  and  _199
REMARK   80  A    between atoms: _199  and  _200
REMARK   81  A    between atoms: _200  and  _201
REMARK   82  A    between atoms: _201  and  _202
REMARK   83  A    between atoms: _202  and  _203
REMARK   84  A    between atoms: _207  and  _209
REMARK   85  A    between atoms: _209  and  _210
REMARK   86  A    between atoms: _209  and  _212
REMARK   87  A    between atoms: _212  and  _213
REMARK   88  A    between atoms: _216  and  _218
REMARK   89  A    between atoms: _218  and  _219
REMARK   90  A    between atoms: _218  and  _221
REMARK   91  A    between atoms: _221  and  _222
REMARK   92  A    between atoms: _222  and  _223
REMARK   93  A    between atoms: _225  and  _227
REMARK   94  A    between atoms: _227  and  _228
REMARK   95  A    between atoms: _227  and  _230
REMARK   96  A    between atoms: _230  and  _231
REMARK   97  A    between atoms: _241  and  _243
REMARK   98  A    between atoms: _243  and  _244
REMARK   99  A    between atoms: _243  and  _246
REMARK  100  A    between atoms: _246  and  _247
REMARK  101  A    between atoms: _250  and  _252
REMARK  102  A    between atoms: _252  and  _253
REMARK  103  A    between atoms: _252  and  _255
REMARK  104  A    between atoms: _255  and  _256
REMARK  105  A    between atoms: _262  and  _264
REMARK  106  A    between atoms: _264  and  _265
REMARK  107  A    between atoms: _264  and  _267
REMARK  108  A    between atoms: _267  and  _268
REMARK  109  A    between atoms: _271  and  _273
REMARK  110  A    between atoms: _273  and  _274
REMARK  111  A    between atoms: _276  and  _278
REMARK  112  A    between atoms: _278  and  _279
REMARK  113  A    between atoms: _278  and  _281
REMARK  114  A    between atoms: _281  and  _282
REMARK  115  A    between atoms: _285  and  _287
REMARK  116  A    between atoms: _287  and  _288
REMARK  117  A    between atoms: _287  and  _290
REMARK  118  A    between atoms: _290  and  _291
REMARK  119  A    between atoms: _294  and  _296
REMARK  120  A    between atoms: _296  and  _297
REMARK  121  A    between atoms: _296  and  _299
REMARK  122  A    between atoms: _299  and  _300
REMARK  123  A    between atoms: _303  and  _305
REMARK  124  A    between atoms: _305  and  _306
REMARK  125  A    between atoms: _305  and  _308
REMARK  126  A    between atoms: _308  and  _309
REMARK  127  A    between atoms: _319  and  _321
REMARK  128  A    between atoms: _321  and  _322
REMARK  129  A    between atoms: _321  and  _324
REMARK  130  A    between atoms: _324  and  _325
REMARK  131  A    between atoms: _325  and  _326
REMARK  132  A    between atoms: _329  and  _331
REMARK  133  A    between atoms: _331  and  _332
REMARK  134  A    between atoms: _331  and  _334
REMARK  135  A    between atoms: _334  and  _335
REMARK  136  A    between atoms: _335  and  _336
REMARK  137  A    between atoms: _336  and  _337
REMARK  138  A    between atoms: _346  and  _348
REMARK  139  A    between atoms: _348  and  _349
REMARK  140  A    between atoms: _348  and  _351
REMARK  141  A    between atoms: _351  and  _352
REMARK  142  A    between atoms: _357  and  _358
REMARK  143  A    between atoms: _360  and  _362
REMARK  144  A    between atoms: _362  and  _363
REMARK  145  A    between atoms: _362  and  _365
REMARK  146  A    between atoms: _365  and  _366
REMARK  147  A    between atoms: _366  and  _367
REMARK  148  A    between atoms: _372  and  _374
REMARK  149  A    between atoms: _374  and  _375
REMARK  150  A    between atoms: _374  and  _377
REMARK  151  A    between atoms: _377  and  _378
REMARK  152  A    between atoms: _384  and  _386
REMARK  153  A    between atoms: _386  and  _387
REMARK  154  A    between atoms: _386  and  _389
REMARK  155  A    between atoms: _389  and  _390
REMARK  156  A    between atoms: _390  and  _391
REMARK  157  A    between atoms: _391  and  _392
REMARK  158  A    between atoms: _392  and  _393
REMARK  159  A    between atoms: _397  and  _399
REMARK  160  A    between atoms: _399  and  _400
REMARK  161  A    between atoms: _402  and  _404
REMARK  162  A    between atoms: _404  and  _405
REMARK  163  A    between atoms: _404  and  _407
REMARK  164  A    between atoms: _407  and  _408
REMARK  165  A    between atoms: _414  and  _415
REMARK  166  A    between atoms: _420  and  _422
REMARK  167  A    between atoms: _422  and  _423
REMARK  168  A    between atoms: _422  and  _425
REMARK  169  A    between atoms: _425  and  _426
REMARK  170  A    between atoms: _426  and  _427
REMARK  171  A    between atoms: _427  and  _428
REMARK  172  A    between atoms: _437  and  _439
REMARK  173  A    between atoms: _439  and  _440
REMARK  174  A    between atoms: _442  and  _444
REMARK  175  A    between atoms: _444  and  _445
REMARK  176  A    between atoms: _444  and  _447
REMARK  177  A    between atoms: _447  and  _448
REMARK  178  A    between atoms: _453  and  _455
REMARK  179  A    between atoms: _455  and  _456
REMARK  180  A    between atoms: _455  and  _458
REMARK  181  A    between atoms: _458  and  _459
REMARK  182  A    between atoms: _463  and  _464
REMARK  183  A    between atoms: _469  and  _471
REMARK  184  A    between atoms: _471  and  _472
REMARK  185  A    between atoms: _475  and  _477
REMARK  186  A    between atoms: _477  and  _478
REMARK  187  A    between atoms: _477  and  _480
REMARK  188  A    between atoms: _480  and  _481
REMARK  189  A    between atoms: _486  and  _488
REMARK  190  A    between atoms: _488  and  _489
REMARK  191  A    between atoms: _488  and  _491
REMARK  192  A    between atoms: _491  and  _492
REMARK  193  A    between atoms: _495  and  _497
REMARK  194  A    between atoms: _497  and  _498
REMARK  195  A    between atoms: _497  and  _500
REMARK  196  A    between atoms: _500  and  _501
REMARK  197  A    between atoms: _503  and  _505
REMARK  198  A    between atoms: _505  and  _506
REMARK  199  A    between atoms: _505  and  _508
REMARK  200  A    between atoms: _508  and  _509
REMARK  201  A    between atoms: _515  and  _517
REMARK  202  A    between atoms: _517  and  _518
REMARK  203  A    between atoms: _517  and  _520
REMARK  204  A    between atoms: _520  and  _521
REMARK  205  A    between atoms: _521  and  _522
REMARK  206  A    between atoms: _525  and  _527
REMARK  207  A    between atoms: _527  and  _528
REMARK  208  A    between atoms: _527  and  _530
REMARK  209  A    between atoms: _533  and  _535
REMARK  210  A    between atoms: _535  and  _536
REMARK  211  A    between atoms: _535  and  _538
REMARK  212  A    between atoms: _538  and  _539
REMARK  213  A    between atoms: _542  and  _544
REMARK  214  A    between atoms: _544  and  _545
REMARK  215  A    between atoms: _544  and  _547
REMARK  216  A    between atoms: _550  and  _552
REMARK  217  A    between atoms: _552  and  _553
REMARK  218  A    between atoms: _556  and  _558
REMARK  219  A    between atoms: _558  and  _559
REMARK  220  A    between atoms: _558  and  _561
REMARK  221  A    between atoms: _561  and  _562
REMARK  222  A    between atoms: _564  and  _566
REMARK  223  A    between atoms: _566  and  _567
REMARK  224  A    between atoms: _566  and  _569
REMARK  225  A    between atoms: _569  and  _570
REMARK  226  A    between atoms: _572  and  _574
REMARK  227  A    between atoms: _574  and  _575
REMARK  228  A    between atoms: _574  and  _577
REMARK  229  A    between atoms: _577  and  _578
REMARK  230  A    between atoms: _581  and  _583
REMARK  231  A    between atoms: _583  and  _584
REMARK  232  A    between atoms: _583  and  _586
REMARK  233  A    between atoms: _586  and  _587
REMARK  234  A    between atoms: _592  and  _593
REMARK  235  A    between atoms: _595  and  _597
REMARK  236  A    between atoms: _597  and  _598
REMARK  237  A    between atoms: _597  and  _600
REMARK  238  A    between atoms: _600  and  _601
REMARK  239  A    between atoms: _607  and  _609
REMARK  240  A    between atoms: _609  and  _610
REMARK  241  A    between atoms: _609  and  _612
REMARK  242  A    between atoms: _612  and  _613
REMARK  243  A    between atoms: _615  and  _617
REMARK  244  A    between atoms: _617  and  _618
REMARK  245  A    between atoms: _617  and  _620
REMARK  246  A    between atoms: _620  and  _621
REMARK  247  A    between atoms: _624  and  _626
REMARK  248  A    between atoms: _626  and  _627
REMARK  249  A    between atoms: _626  and  _629
REMARK  250  A    between atoms: _629  and  _630
REMARK  251  A    between atoms: _635  and  _636
REMARK                            x       y       z     vdW  Elec       q    Type
REMARK                         _______ _______ _______ _____ _____    ______ ____
ROOT
ATOM      1  C   THR A   5       6.744  -2.421  -5.292  0.00  0.00    +0.243 C 
ATOM      2  N   THR A   6       6.385  -1.240  -4.791  0.00  0.00    -0.295 N 
ATOM      3  H   THR A   6       7.126  -0.566  -4.512  0.00  0.00    +0.150 HD
ATOM      4  O   THR A   5       5.934  -3.338  -5.520  0.00  0.00    -0.273 OA
ENDROOT
BRANCH   2   5
ATOM      5  CA  THR A   6       4.988  -0.860  -4.621  0.00  0.00    +0.176 C 
BRANCH   5   6
ATOM      6  C   THR A   6       4.800   0.634  -4.887  0.00  0.00    +0.243 C 
ATOM      7  N   THR A   7       3.544   1.067  -4.901  0.00  0.00    -0.295 N 
ATOM      8  H   THR A   7       2.772   0.370  -4.918  0.00  0.00    +0.150 HD
ATOM      9  O   THR A   6       5.773   1.367  -5.088  0.00  0.00    -0.273 OA
BRANCH   7  10
ATOM     10  CA  THR A   7       3.212   2.488  -4.893  0.00  0.00    +0.176 C 
BRANCH  10  11
ATOM     11  C   THR A   7       2.242   2.769  -3.740  0.00  0.00    +0.243 C 
ATOM     12  N   TRP A   8       2.422   3.907  -3.078  0.00  0.00    -0.297 N 
ATOM     13  H   TRP A   8       3.206   4.535  -3.346  0.00  0.00    +0.150 HD
ATOM     14  O   THR A   7       1.369   1.952  -3.437  0.00  0.00    -0.273 OA
BRANCH  12  15
ATOM     15  CA  TRP A   8       1.536   4.293  -1.977  0.00  0.00    +0.153 C 
BRANCH  15  16
ATOM     16  C   TRP A   8       0.349   5.091  -2.502  0.00  0.00    +0.241 C 
ATOM     17  O   TRP A   8      -0.491   5.565  -1.729  0.00  0.00    -0.273 OA
ATOM     18  N   GLU A   9       0.296   5.237  -3.826  0.00  0.00    -0.298 N 
ATOM     19  H   GLU A   9       1.134   4.991  -4.391  0.00  0.00    +0.150 HD
BRANCH  18  20
ATOM     20  CA  GLU A   9      -0.892   5.729  -4.511  0.00  0.00    +0.137 C 
BRANCH  20  21
ATOM     21  C   GLU A   9      -1.996   4.702  -4.293  0.00  0.00    +0.227 C 
ATOM     22  O   GLU A   9      -1.796   3.496  -4.505  0.00  0.00    -0.286 OA
ENDBRANCH  20  21
BRANCH  20  23
ATOM     23  CB  GLU A   9      -0.628   5.911  -6.009  0.00  0.00    +0.039 C 
BRANCH  23  24
ATOM     24  CG  GLU A   9       0.450   6.943  -6.343  0.00  0.00    +0.116 C 
BRANCH  24  25
ATOM     25  CD  GLU A   9      -0.103   8.260  -6.843  0.00  0.00    +0.365 C 
ATOM     26  OE2 GLU A   9      -1.159   8.711  -6.345  0.00  0.00    -0.246 OA
ATOM     27  OE1 GLU A   9       0.527   8.849  -7.748  0.00  0.00    -0.246 OA
ENDBRANCH  24  25
ENDBRANCH  23  24
ENDBRANCH  20  23
ENDBRANCH  18  20
ENDBRANCH  15  16
BRANCH  15  28
ATOM     28  CB  TRP A   8       2.297   5.057  -0.885  0.00  0.00    +0.057 C 
BRANCH  28  29
ATOM     29  CG  TRP A   8       3.596   4.398  -0.498  0.00  0.00    -0.002 A 
ATOM     30  CD2 TRP A   8       3.766   3.126   0.151  0.00  0.00    +0.013 A 
ATOM     31  CE3 TRP A   8       2.881   2.148   0.628  0.00  0.00    +0.001 A 
ATOM     32  CZ3 TRP A   8       3.406   1.008   1.228  0.00  0.00    +0.000 A 
ATOM     33  CH2 TRP A   8       4.794   0.829   1.360  0.00  0.00    +0.001 A 
ATOM     34  CZ2 TRP A   8       5.684   1.768   0.900  0.00  0.00    +0.017 A 
ATOM     35  CE2 TRP A   8       5.156   2.916   0.296  0.00  0.00    +0.056 A 
ATOM     36  NE1 TRP A   8       5.791   4.002  -0.245  0.00  0.00    -0.352 N 
ATOM     37  HE1 TRP A   8       6.821   4.138  -0.289  0.00  0.00    +0.166 HD
ATOM     38  CD1 TRP A   8       4.850   4.882  -0.720  0.00  0.00    +0.068 A 
ENDBRANCH  28  29
ENDBRANCH  15  28
ENDBRANCH  12  15
ENDBRANCH  10  11
BRANCH  10  39
ATOM     39  CB  THR A   7       2.656   2.977  -6.268  0.00  0.00    +0.137 C 
ATOM     40  CG2 THR A   7       1.434   2.176  -6.705  0.00  0.00    +0.034 C 
BRANCH  39  41
ATOM     41  OG1 THR A   7       2.309   4.362  -6.185  0.00  0.00    -0.382 OA
ATOM     42  HG1 THR A   7       3.113   4.889  -5.950  0.00  0.00    +0.210 HD
ENDBRANCH  39  41
ENDBRANCH  10  39
ENDBRANCH   7  10
ENDBRANCH   5   6
BRANCH   5  43
ATOM     43  CB  THR A   6       4.441  -1.236  -3.208  0.00  0.00    +0.137 C 
ATOM     44  CG2 THR A   6       4.996  -0.306  -2.116  0.00  0.00    +0.034 C 
BRANCH  43  45
ATOM     45  OG1 THR A   6       3.011  -1.151  -3.212  0.00  0.00    -0.382 OA
ATOM     46  HG1 THR A   6       2.665  -1.390  -2.316  0.00  0.00    +0.210 HD
ENDBRANCH  43  45
ENDBRANCH   5  43
ENDBRANCH   2   5
BRANCH   1  47
ATOM     47  CA  THR A   5       8.245  -2.616  -5.569  0.00  0.00    +0.176 C 
BRANCH  47  50
ATOM     48  C   GLY A   4       9.330  -4.811  -5.753  0.00  0.00    +0.243 C 
ATOM     49  O   GLY A   4      10.041  -4.629  -4.759  0.00  0.00    -0.273 OA
ATOM     50  N   THR A   5       8.459  -3.912  -6.207  0.00  0.00    -0.295 N 
ATOM     51  H   THR A   5       7.905  -4.144  -7.056  0.00  0.00    +0.150 HD
BRANCH  48  52
ATOM     52  CA  GLY A   4       9.400  -6.109  -6.544  0.00  0.00    +0.176 C 
BRANCH  52  54
ATOM     53  C   THR A   3      11.664  -6.983  -6.823  0.00  0.00    +0.243 C 
ATOM     54  N   GLY A   4      10.499  -7.001  -6.177  0.00  0.00    -0.295 N 
ATOM     55  H   GLY A   4      10.368  -7.668  -5.390  0.00  0.00    +0.150 HD
ATOM     56  O   THR A   3      11.915  -6.192  -7.739  0.00  0.00    -0.273 OA
BRANCH  53  57
ATOM     57  CA  THR A   3      12.706  -8.005  -6.366  0.00  0.00    +0.176 C 
BRANCH  57  60
ATOM     58  C   PHE A   2      12.864  -9.986  -7.798  0.00  0.00    +0.241 C 
ATOM     59  O   PHE A   2      11.960 -10.575  -7.190  0.00  0.00    -0.273 OA
ATOM     60  N   THR A   3      13.261  -8.750  -7.496  0.00  0.00    -0.295 N 
ATOM     61  H   THR A   3      13.991  -8.300  -8.084  0.00  0.00    +0.150 HD
BRANCH  58  62
ATOM     62  CA  PHE A   2      13.599 -10.666  -8.955  0.00  0.00    +0.153 C 
BRANCH  62  65
ATOM     63  C   ILE A   1      15.448 -11.945  -7.953  0.00  0.00    +0.238 C 
ATOM     64  O   ILE A   1      16.236 -10.988  -7.972  0.00  0.00    -0.274 OA
ATOM     65  N   PHE A   2      14.219 -11.896  -8.464  0.00  0.00    -0.297 N 
ATOM     66  H   PHE A   2      13.672 -12.779  -8.517  0.00  0.00    +0.150 HD
BRANCH  63  67
ATOM     67  CA  ILE A   1      15.858 -13.285  -7.329  0.00  0.00    +0.145 C 
BRANCH  67  68
ATOM     68  CB  ILE A   1      16.070 -13.120  -5.779  0.00  0.00    +0.025 C 
ATOM     69  CG2 ILE A   1      14.844 -12.476  -5.111  0.00  0.00    +0.002 C 
BRANCH  68  70
ATOM     70  CG1 ILE A   1      16.367 -14.472  -5.116  0.00  0.00    +0.002 C 
ATOM     71  CD1 ILE A   1      16.642 -14.407  -3.592  0.00  0.00    +0.000 C 
ENDBRANCH  68  70
ENDBRANCH  67  68
BRANCH  67  72
ATOM     72  N   ILE A   1      17.052 -13.802  -8.007  0.00  0.00    -0.238 NA
ATOM     73  H   ILE A   1      17.972 -13.358  -7.812  0.00  0.00    +0.142 HD
ENDBRANCH  67  72
ENDBRANCH  63  67
ENDBRANCH  62  65
BRANCH  62  74
ATOM     74  CB  PHE A   2      12.645 -10.983 -10.126  0.00  0.00    +0.055 C 
BRANCH  74  75
ATOM     75  CG  PHE A   2      11.961  -9.766 -10.730  0.00  0.00    -0.020 A 
ATOM     76  CD2 PHE A   2      10.607  -9.522 -10.493  0.00  0.00    -0.004 A 
ATOM     77  CE2 PHE A   2       9.966  -8.399 -11.061  0.00  0.00    -0.000 A 
ATOM     78  CZ  PHE A   2      10.692  -7.517 -11.881  0.00  0.00    -0.000 A 
ATOM     79  CE1 PHE A   2      12.044  -7.760 -12.126  0.00  0.00    -0.000 A 
ATOM     80  CD1 PHE A   2      12.666  -8.886 -11.555  0.00  0.00    -0.004 A 
ENDBRANCH  74  75
ENDBRANCH  62  74
ENDBRANCH  58  62
ENDBRANCH  57  60
BRANCH  57  81
ATOM     81  CB  THR A   3      13.811  -7.281  -5.541  0.00  0.00    +0.137 C 
ATOM     82  CG2 THR A   3      14.904  -8.248  -5.119  0.00  0.00    +0.034 C 
BRANCH  81  83
ATOM     83  OG1 THR A   3      14.376  -6.212  -6.314  0.00  0.00    -0.382 OA
ATOM     84  HG1 THR A   3      13.665  -5.564  -6.548  0.00  0.00    +0.210 HD
ENDBRANCH  81  83
ENDBRANCH  57  81
ENDBRANCH  53  57
ENDBRANCH  52  54
ENDBRANCH  48  52
ENDBRANCH  47  50
BRANCH  47  85
ATOM     85  CB  THR A   5       8.834  -1.449  -6.432  0.00  0.00    +0.137 C 
ATOM     86  CG2 THR A   5       8.067  -1.277  -7.759  0.00  0.00    +0.034 C 
BRANCH  85  87
ATOM     87  OG1 THR A   5       8.809  -0.216  -5.690  0.00  0.00    -0.382 OA
ATOM     88  HG1 THR A   5       9.184   0.511  -6.248  0.00  0.00    +0.210 HD
ENDBRANCH  85  87
ENDBRANCH  47  85
ENDBRANCH   1  47
TORSDOF 35
REMARK  Name = ../refined-set-2016/2ihj/2ihj_pocket.pdb
REMARK  251 active torsions:
REMARK  status: ('A' for Active; 'I' for Inactive)
REMARK    1  A    between atoms: _1  and  _3
REMARK    2  A    between atoms: _3  and  _4
REMARK    3  A    between atoms: _3  and  _6
REMARK    4  A    between atoms: _6  and  _7
REMARK    5  A    between atoms: _11  and  _12
REMARK    6  A    between atoms: _17  and  _19
REMARK    7  A    between atoms: _19  and  _20
REMARK    8  A    between atoms: _23  and  _25
REMARK    9  A    between atoms: _25  and  _26
REMARK   10  A    between atoms: _25  and  _28
REMARK   11  A    between atoms: _28  and  _29
REMARK   12  A    between atoms: _31  and  _33
REMARK   13  A    between atoms: _33  and  _34
REMARK   14  A    between atoms: _33  and  _36
REMARK   15  A    between atoms: _36  and  _37
REMARK   16  A    between atoms: _41  and  _42
REMARK   17  A    between atoms: _47  and  _49
REMARK   18  A    between atoms: _49  and  _50
REMARK   19  A    between atoms: _49  and  _52
REMARK   20  A    between atoms: _52  and  _53
REMARK   21  A    between atoms: _56  and  _58
REMARK   22  A    between atoms: _58  and  _59
REMARK   23  A    between atoms: _58  and  _61
REMARK   24  A    between atoms: _61  and  _62
REMARK   25  A    between atoms: _62  and  _63
REMARK   26  A    between atoms: _63  and  _64
REMARK   27  A    between atoms: _73  and  _75
REMARK   28  A    between atoms: _75  and  _76
REMARK   29  A    between atoms: _75  and  _78
REMARK   30  A    between atoms: _78  and  _79
REMARK   31  A    between atoms: _85  and  _87
REMARK   32  A    between atoms: _87  and  _88
REMARK   33  A    between atoms: _87  and  _90
REMARK   34  A    between atoms: _90  and  _91
REMARK   35  A    between atoms: _96  and  _98
REMARK   36  A    between atoms: _98  and  _99
REMARK   37  A    between atoms: _102  and  _104
REMARK   38  A    between atoms: _104  and  _105
REMARK   39  A    between atoms: _104  and  _107
REMARK   40  A    between atoms: _107  and  _108
REMARK   41  A    between atoms: _113  and  _115
REMARK   42  A    between atoms: _115  and  _116
REMARK   43  A    between atoms: _115  and  _118
REMARK   44  A    between atoms: _118  and  _119
REMARK   45  A    between atoms: _122  and  _124
REMARK   46  A    between atoms: _124  and  _125
REMARK   47  A    between atoms: _124  and  _127
REMARK   48  A    between atoms: _127  and  _128
REMARK   49  A    between atoms: _131  and  _133
REMARK   50  A    between atoms: _133  and  _134
REMARK   51  A    between atoms: _136  and  _138
REMARK   52  A    between atoms: _138  and  _139
REMARK   53  A    between atoms: _138  and  _141
REMARK   54  A    between atoms: _141  and  _142
REMARK   55  A    between atoms: _144  and  _146
REMARK   56  A    between atoms: _146  and  _147
REMARK   57  A    between atoms: _146  and  _149
REMARK   58  A    between atoms: _149  and  _150
REMARK   59  A    between atoms: _150  and  _151
REMARK   60  A    between atoms: _153  and  _155
REMARK   61  A    between atoms: _155  and  _156
REMARK   62  A    between atoms: _155  and  _158
REMARK   63  A    between atoms: _158  and  _159
REMARK   64  A    between atoms: _159  and  _160
REMARK   65  A    between atoms: _163  and  _165
REMARK   66  A    between atoms: _165  and  _166
REMARK   67  A    between atoms: _165  and  _168
REMARK   68  A    between atoms: _168  and  _169
REMARK   69  A    between atoms: _174  and  _175
REMARK   70  A    between atoms: _177  and  _179
REMARK   71  A    between atoms: _179  and  _180
REMARK   72  A    between atoms: _179  and  _182
REMARK   73  A    between atoms: _185  and  _187
REMARK   74  A    between atoms: _187  and  _188
REMARK   75  A    between atoms: _187  and  _190
REMARK   76  A    between atoms: _190  and  _191
REMARK   77  A    between atoms: _194  and  _196
REMARK   78  A    between atoms: _196  and  _197
REMARK   79  A    between atoms: _196  and  _199
REMARK   80  A    between atoms: _199  and  _200
REMARK   81  A    between atoms: _200  and  _201
REMARK   82  A    between atoms: _201  and  _202
REMARK   83  A    between atoms: _202  and  _203
REMARK   84  A    between atoms: _207  and  _209
REMARK   85  A    between atoms: _209  and  _210
REMARK   86  A    between atoms: _209  and  _212
REMARK   87  A    between atoms: _212  and  _213
REMARK   88  A    between atoms: _216  and  _218
REMARK   89  A    between atoms: _218  and  _219
REMARK   90  A    between atoms: _218  and  _221
REMARK   91  A    between atoms: _221  and  _222
REMARK   92  A    between atoms: _222  and  _223
REMARK   93  A    between atoms: _225  and  _227
REMARK   94  A    between atoms: _227  and  _228
REMARK   95  A    between atoms: _227  and  _230
REMARK   96  A    between atoms: _230  and  _231
REMARK   97  A    between atoms: _241  and  _243
REMARK   98  A    between atoms: _243  and  _244
REMARK   99  A    between atoms: _243  and  _246
REMARK  100  A    between atoms: _246  and  _247
REMARK  101  A    between atoms: _250  and  _252
REMARK  102  A    between atoms: _252  and  _253
REMARK  103  A    between atoms: _252  and  _255
REMARK  104  A    between atoms: _255  and  _256
REMARK  105  A    between atoms: _262  and  _264
REMARK  106  A    between atoms: _264  and  _265
REMARK  107  A    between atoms: _264  and  _267
REMARK  108  A    between atoms: _267  and  _268
REMARK  109  A    between atoms: _271  and  _273
REMARK  110  A    between atoms: _273  and  _274
REMARK  111  A    between atoms: _276  and  _278
REMARK  112  A    between atoms: _278  and  _279
REMARK  113  A    between atoms: _278  and  _281
REMARK  114  A    between atoms: _281  and  _282
REMARK  115  A    between atoms: _285  and  _287
REMARK  116  A    between atoms: _287  and  _288
REMARK  117  A    between atoms: _287  and  _290
REMARK  118  A    between atoms: _290  and  _291
REMARK  119  A    between atoms: _294  and  _296
REMARK  120  A    between atoms: _296  and  _297
REMARK  121  A    between atoms: _296  and  _299
REMARK  122  A    between atoms: _299  and  _300
REMARK  123  A    between atoms: _303  and  _305
REMARK  124  A    between atoms: _305  and  _306
REMARK  125  A    between atoms: _305  and  _308
REMARK  126  A    between atoms: _308  and  _309
REMARK  127  A    between atoms: _319  and  _321
REMARK  128  A    between atoms: _321  and  _322
REMARK  129  A    between atoms: _321  and  _324
REMARK  130  A    between atoms: _324  and  _325
REMARK  131  A    between atoms: _325  and  _326
REMARK  132  A    between atoms: _329  and  _331
REMARK  133  A    between atoms: _331  and  _332
REMARK  134  A    between atoms: _331  and  _334
REMARK  135  A    between atoms: _334  and  _335
REMARK  136  A    between atoms: _335  and  _336
REMARK  137  A    between atoms: _336  and  _337
REMARK  138  A    between atoms: _346  and  _348
REMARK  139  A    between atoms: _348  and  _349
REMARK  140  A    between atoms: _348  and  _351
REMARK  141  A    between atoms: _351  and  _352
REMARK  142  A    between atoms: _357  and  _358
REMARK  143  A    between atoms: _360  and  _362
REMARK  144  A    between atoms: _362  and  _363
REMARK  145  A    between atoms: _362  and  _365
REMARK  146  A    between atoms: _365  and  _366
REMARK  147  A    between atoms: _366  and  _367
REMARK  148  A    between atoms: _372  and  _374
REMARK  149  A    between atoms: _374  and  _375
REMARK  150  A    between atoms: _374  and  _377
REMARK  151  A    between atoms: _377  and  _378
REMARK  152  A    between atoms: _384  and  _386
REMARK  153  A    between atoms: _386  and  _387
REMARK  154  A    between atoms: _386  and  _389
REMARK  155  A    between atoms: _389  and  _390
REMARK  156  A    between atoms: _390  and  _391
REMARK  157  A    between atoms: _391  and  _392
REMARK  158  A    between atoms: _392  and  _393
REMARK  159  A    between atoms: _397  and  _399
REMARK  160  A    between atoms: _399  and  _400
REMARK  161  A    between atoms: _402  and  _404
REMARK  162  A    between atoms: _404  and  _405
REMARK  163  A    between atoms: _404  and  _407
REMARK  164  A    between atoms: _407  and  _408
REMARK  165  A    between atoms: _414  and  _415
REMARK  166  A    between atoms: _420  and  _422
REMARK  167  A    between atoms: _422  and  _423
REMARK  168  A    between atoms: _422  and  _425
REMARK  169  A    between atoms: _425  and  _426
REMARK  170  A    between atoms: _426  and  _427
REMARK  171  A    between atoms: _427  and  _428
REMARK  172  A    between atoms: _437  and  _439
REMARK  173  A    between atoms: _439  and  _440
REMARK  174  A    between atoms: _442  and  _444
REMARK  175  A    between atoms: _444  and  _445
REMARK  176  A    between atoms: _444  and  _447
REMARK  177  A    between atoms: _447  and  _448
REMARK  178  A    between atoms: _453  and  _455
REMARK  179  A    between atoms: _455  and  _456
REMARK  180  A    between atoms: _455  and  _458
REMARK  181  A    between atoms: _458  and  _459
REMARK  182  A    between atoms: _463  and  _464
REMARK  183  A    between atoms: _469  and  _471
REMARK  184  A    between atoms: _471  and  _472
REMARK  185  A    between atoms: _475  and  _477
REMARK  186  A    between atoms: _477  and  _478
REMARK  187  A    between atoms: _477  and  _480
REMARK  188  A    between atoms: _480  and  _481
REMARK  189  A    between atoms: _486  and  _488
REMARK  190  A    between atoms: _488  and  _489
REMARK  191  A    between atoms: _488  and  _491
REMARK  192  A    between atoms: _491  and  _492
REMARK  193  A    between atoms: _495  and  _497
REMARK  194  A    between atoms: _497  and  _498
REMARK  195  A    between atoms: _497  and  _500
REMARK  196  A    between atoms: _500  and  _501
REMARK  197  A    between atoms: _503  and  _505
REMARK  198  A    between atoms: _505  and  _506
REMARK  199  A    between atoms: _505  and  _508
REMARK  200  A    between atoms: _508  and  _509
REMARK  201  A    between atoms: _515  and  _517
REMARK  202  A    between atoms: _517  and  _518
REMARK  203  A    between atoms: _517  and  _520
REMARK  204  A    between atoms: _520  and  _521
REMARK  205  A    between atoms: _521  and  _522
REMARK  206  A    between atoms: _525  and  _527
REMARK  207  A    between atoms: _527  and  _528
REMARK  208  A    between atoms: _527  and  _530
REMARK  209  A    between atoms: _533  and  _535
REMARK  210  A    between atoms: _535  and  _536
REMARK  211  A    between atoms: _535  and  _538
REMARK  212  A    between atoms: _538  and  _539
REMARK  213  A    between atoms: _542  and  _544
REMARK  214  A    between atoms: _544  and  _545
REMARK  215  A    between atoms: _544  and  _547
REMARK  216  A    between atoms: _550  and  _552
REMARK  217  A    between atoms: _552  and  _553
REMARK  218  A    between atoms: _556  and  _558
REMARK  219  A    between atoms: _558  and  _559
REMARK  220  A    between atoms: _558  and  _561
REMARK  221  A    between atoms: _561  and  _562
REMARK  222  A    between atoms: _564  and  _566
REMARK  223  A    between atoms: _566  and  _567
REMARK  224  A    between atoms: _566  and  _569
REMARK  225  A    between atoms: _569  and  _570
REMARK  226  A    between atoms: _572  and  _574
REMARK  227  A    between atoms: _574  and  _575
REMARK  228  A    between atoms: _574  and  _577
REMARK  229  A    between atoms: _577  and  _578
REMARK  230  A    between atoms: _581  and  _583
REMARK  231  A    between atoms: _583  and  _584
REMARK  232  A    between atoms: _583  and  _586
REMARK  233  A    between atoms: _586  and  _587
REMARK  234  A    between atoms: _592  and  _593
REMARK  235  A    between atoms: _595  and  _597
REMARK  236  A    between atoms: _597  and  _598
REMARK  237  A    between atoms: _597  and  _600
REMARK  238  A    between atoms: _600  and  _601
REMARK  239  A    between atoms: _607  and  _609
REMARK  240  A    between atoms: _609  and  _610
REMARK  241  A    between atoms: _609  and  _612
REMARK  242  A    between atoms: _612  and  _613
REMARK  243  A    between atoms: _615  and  _617
REMARK  244  A    between atoms: _617  and  _618
REMARK  245  A    between atoms: _617  and  _620
REMARK  246  A    between atoms: _620  and  _621
REMARK  247  A    between atoms: _624  and  _626
REMARK  248  A    between atoms: _626  and  _627
REMARK  249  A    between atoms: _626  and  _629
REMARK  250  A    between atoms: _629  and  _630
REMARK  251  A    between atoms: _635  and  _636
REMARK                            x       y       z     vdW  Elec       q    Type
REMARK                         _______ _______ _______ _____ _____    ______ ____
ROOT
ATOM      1  NE  ARG A   1      -1.245  -0.209  -4.650  0.00  0.00    -0.265 N 
ATOM      2  CZ  ARG A   1      -0.842  -1.203  -3.859  0.00  0.00    +0.342 C 
ATOM      3  NH2 ARG A   1       0.141  -1.008  -2.988  0.00  0.00    -0.292 N 
ATOM      4 HH21 ARG A   1       0.452  -1.786  -2.373  0.00  0.00    +0.255 HD
ATOM      5 HH22 ARG A   1       0.599  -0.077  -2.921  0.00  0.00    +0.255 HD
ATOM      6  NH1 ARG A   1      -1.409  -2.396  -3.933  0.00  0.00    -0.292 N 
ATOM      7 HH11 ARG A   1      -1.087  -3.164  -3.311  0.00  0.00    +0.255 HD
ATOM      8 HH12 ARG A   1      -2.177  -2.565  -4.613  0.00  0.00    +0.255 HD
ATOM      9  HE  ARG A   1      -0.769   0.710  -4.547  0.00  0.00    +0.259 HD
ENDROOT
BRANCH   1  10
ATOM     10  CD  ARG A   1      -2.308  -0.312  -5.655  0.00  0.00    +0.174 C 
BRANCH  10  11
ATOM     11  CG  ARG A   1      -2.143   0.732  -6.771  0.00  0.00    +0.045 C 
BRANCH  11  12
ATOM     12  CB  ARG A   1      -2.425   0.126  -8.159  0.00  0.00    +0.029 C 
BRANCH  12  13
ATOM     13  CA  ARG A   1      -1.449   0.566  -9.267  0.00  0.00    +0.133 C 
BRANCH  13  14
ATOM     14  N   ARG A   1      -1.742   1.930  -9.732  0.00  0.00    -0.239 NA
ATOM     15  H   ARG A   1      -2.553   2.434  -9.320  0.00  0.00    +0.142 HD
ENDBRANCH  13  14
BRANCH  13  16
ATOM     16  C   ARG A   1      -1.435  -0.456 -10.419  0.00  0.00    +0.224 C 
ATOM     17  O   ARG A   1      -0.577  -1.342 -10.451  0.00  0.00    -0.287 OA
ENDBRANCH  13  16
ENDBRANCH  12  13
ENDBRANCH  11  12
ENDBRANCH  10  11
ENDBRANCH   1  10
TORSDOF 6
REMARK  Name = ../refined-set-2016/2ihj/2ihj_pocket.pdb
REMARK  251 active torsions:
REMARK  status: ('A' for Active; 'I' for Inactive)
REMARK    1  A    between atoms: _1  and  _3
REMARK    2  A    between atoms: _3  and  _4
REMARK    3  A    between atoms: _3  and  _6
REMARK    4  A    between atoms: _6  and  _7
REMARK    5  A    between atoms: _11  and  _12
REMARK    6  A    between atoms: _17  and  _19
REMARK    7  A    between atoms: _19  and  _20
REMARK    8  A    between atoms: _23  and  _25
REMARK    9  A    between atoms: _25  and  _26
REMARK   10  A    between atoms: _25  and  _28
REMARK   11  A    between atoms: _28  and  _29
REMARK   12  A    between atoms: _31  and  _33
REMARK   13  A    between atoms: _33  and  _34
REMARK   14  A    between atoms: _33  and  _36
REMARK   15  A    between atoms: _36  and  _37
REMARK   16  A    between atoms: _41  and  _42
REMARK   17  A    between atoms: _47  and  _49
REMARK   18  A    between atoms: _49  and  _50
REMARK   19  A    between atoms: _49  and  _52
REMARK   20  A    between atoms: _52  and  _53
REMARK   21  A    between atoms: _56  and  _58
REMARK   22  A    between atoms: _58  and  _59
REMARK   23  A    between atoms: _58  and  _61
REMARK   24  A    between atoms: _61  and  _62
REMARK   25  A    between atoms: _62  and  _63
REMARK   26  A    between atoms: _63  and  _64
REMARK   27  A    between atoms: _73  and  _75
REMARK   28  A    between atoms: _75  and  _76
REMARK   29  A    between atoms: _75  and  _78
REMARK   30  A    between atoms: _78  and  _79
REMARK   31  A    between atoms: _85  and  _87
REMARK   32  A    between atoms: _87  and  _88
REMARK   33  A    between atoms: _87  and  _90
REMARK   34  A    between atoms: _90  and  _91
REMARK   35  A    between atoms: _96  and  _98
REMARK   36  A    between atoms: _98  and  _99
REMARK   37  A    between atoms: _102  and  _104
REMARK   38  A    between atoms: _104  and  _105
REMARK   39  A    between atoms: _104  and  _107
REMARK   40  A    between atoms: _107  and  _108
REMARK   41  A    between atoms: _113  and  _115
REMARK   42  A    between atoms: _115  and  _116
REMARK   43  A    between atoms: _115  and  _118
REMARK   44  A    between atoms: _118  and  _119
REMARK   45  A    between atoms: _122  and  _124
REMARK   46  A    between atoms: _124  and  _125
REMARK   47  A    between atoms: _124  and  _127
REMARK   48  A    between atoms: _127  and  _128
REMARK   49  A    between atoms: _131  and  _133
REMARK   50  A    between atoms: _133  and  _134
REMARK   51  A    between atoms: _136  and  _138
REMARK   52  A    between atoms: _138  and  _139
REMARK   53  A    between atoms: _138  and  _141
REMARK   54  A    between atoms: _141  and  _142
REMARK   55  A    between atoms: _144  and  _146
REMARK   56  A    between atoms: _146  and  _147
REMARK   57  A    between atoms: _146  and  _149
REMARK   58  A    between atoms: _149  and  _150
REMARK   59  A    between atoms: _150  and  _151
REMARK   60  A    between atoms: _153  and  _155
REMARK   61  A    between atoms: _155  and  _156
REMARK   62  A    between atoms: _155  and  _158
REMARK   63  A    between atoms: _158  and  _159
REMARK   64  A    between atoms: _159  and  _160
REMARK   65  A    between atoms: _163  and  _165
REMARK   66  A    between atoms: _165  and  _166
REMARK   67  A    between atoms: _165  and  _168
REMARK   68  A    between atoms: _168  and  _169
REMARK   69  A    between atoms: _174  and  _175
REMARK   70  A    between atoms: _177  and  _179
REMARK   71  A    between atoms: _179  and  _180
REMARK   72  A    between atoms: _179  and  _182
REMARK   73  A    between atoms: _185  and  _187
REMARK   74  A    between atoms: _187  and  _188
REMARK   75  A    between atoms: _187  and  _190
REMARK   76  A    between atoms: _190  and  _191
REMARK   77  A    between atoms: _194  and  _196
REMARK   78  A    between atoms: _196  and  _197
REMARK   79  A    between atoms: _196  and  _199
REMARK   80  A    between atoms: _199  and  _200
REMARK   81  A    between atoms: _200  and  _201
REMARK   82  A    between atoms: _201  and  _202
REMARK   83  A    between atoms: _202  and  _203
REMARK   84  A    between atoms: _207  and  _209
REMARK   85  A    between atoms: _209  and  _210
REMARK   86  A    between atoms: _209  and  _212
REMARK   87  A    between atoms: _212  and  _213
REMARK   88  A    between atoms: _216  and  _218
REMARK   89  A    between atoms: _218  and  _219
REMARK   90  A    between atoms: _218  and  _221
REMARK   91  A    between atoms: _221  and  _222
REMARK   92  A    between atoms: _222  and  _223
REMARK   93  A    between atoms: _225  and  _227
REMARK   94  A    between atoms: _227  and  _228
REMARK   95  A    between atoms: _227  and  _230
REMARK   96  A    between atoms: _230  and  _231
REMARK   97  A    between atoms: _241  and  _243
REMARK   98  A    between atoms: _243  and  _244
REMARK   99  A    between atoms: _243  and  _246
REMARK  100  A    between atoms: _246  and  _247
REMARK  101  A    between atoms: _250  and  _252
REMARK  102  A    between atoms: _252  and  _253
REMARK  103  A    between atoms: _252  and  _255
REMARK  104  A    between atoms: _255  and  _256
REMARK  105  A    between atoms: _262  and  _264
REMARK  106  A    between atoms: _264  and  _265
REMARK  107  A    between atoms: _264  and  _267
REMARK  108  A    between atoms: _267  and  _268
REMARK  109  A    between atoms: _271  and  _273
REMARK  110  A    between atoms: _273  and  _274
REMARK  111  A    between atoms: _276  and  _278
REMARK  112  A    between atoms: _278  and  _279
REMARK  113  A    between atoms: _278  and  _281
REMARK  114  A    between atoms: _281  and  _282
REMARK  115  A    between atoms: _285  and  _287
REMARK  116  A    between atoms: _287  and  _288
REMARK  117  A    between atoms: _287  and  _290
REMARK  118  A    between atoms: _290  and  _291
REMARK  119  A    between atoms: _294  and  _296
REMARK  120  A    between atoms: _296  and  _297
REMARK  121  A    between atoms: _296  and  _299
REMARK  122  A    between atoms: _299  and  _300
REMARK  123  A    between atoms: _303  and  _305
REMARK  124  A    between atoms: _305  and  _306
REMARK  125  A    between atoms: _305  and  _308
REMARK  126  A    between atoms: _308  and  _309
REMARK  127  A    between atoms: _319  and  _321
REMARK  128  A    between atoms: _321  and  _322
REMARK  129  A    between atoms: _321  and  _324
REMARK  130  A    between atoms: _324  and  _325
REMARK  131  A    between atoms: _325  and  _326
REMARK  132  A    between atoms: _329  and  _331
REMARK  133  A    between atoms: _331  and  _332
REMARK  134  A    between atoms: _331  and  _334
REMARK  135  A    between atoms: _334  and  _335
REMARK  136  A    between atoms: _335  and  _336
REMARK  137  A    between atoms: _336  and  _337
REMARK  138  A    between atoms: _346  and  _348
REMARK  139  A    between atoms: _348  and  _349
REMARK  140  A    between atoms: _348  and  _351
REMARK  141  A    between atoms: _351  and  _352
REMARK  142  A    between atoms: _357  and  _358
REMARK  143  A    between atoms: _360  and  _362
REMARK  144  A    between atoms: _362  and  _363
REMARK  145  A    between atoms: _362  and  _365
REMARK  146  A    between atoms: _365  and  _366
REMARK  147  A    between atoms: _366  and  _367
REMARK  148  A    between atoms: _372  and  _374
REMARK  149  A    between atoms: _374  and  _375
REMARK  150  A    between atoms: _374  and  _377
REMARK  151  A    between atoms: _377  and  _378
REMARK  152  A    between atoms: _384  and  _386
REMARK  153  A    between atoms: _386  and  _387
REMARK  154  A    between atoms: _386  and  _389
REMARK  155  A    between atoms: _389  and  _390
REMARK  156  A    between atoms: _390  and  _391
REMARK  157  A    between atoms: _391  and  _392
REMARK  158  A    between atoms: _392  and  _393
REMARK  159  A    between atoms: _397  and  _399
REMARK  160  A    between atoms: _399  and  _400
REMARK  161  A    between atoms: _402  and  _404
REMARK  162  A    between atoms: _404  and  _405
REMARK  163  A    between atoms: _404  and  _407
REMARK  164  A    between atoms: _407  and  _408
REMARK  165  A    between atoms: _414  and  _415
REMARK  166  A    between atoms: _420  and  _422
REMARK  167  A    between atoms: _422  and  _423
REMARK  168  A    between atoms: _422  and  _425
REMARK  169  A    between atoms: _425  and  _426
REMARK  170  A    between atoms: _426  and  _427
REMARK  171  A    between atoms: _427  and  _428
REMARK  172  A    between atoms: _437  and  _439
REMARK  173  A    between atoms: _439  and  _440
REMARK  174  A    between atoms: _442  and  _444
REMARK  175  A    between atoms: _444  and  _445
REMARK  176  A    between atoms: _444  and  _447
REMARK  177  A    between atoms: _447  and  _448
REMARK  178  A    between atoms: _453  and  _455
REMARK  179  A    between atoms: _455  and  _456
REMARK  180  A    between atoms: _455  and  _458
REMARK  181  A    between atoms: _458  and  _459
REMARK  182  A    between atoms: _463  and  _464
REMARK  183  A    between atoms: _469  and  _471
REMARK  184  A    between atoms: _471  and  _472
REMARK  185  A    between atoms: _475  and  _477
REMARK  186  A    between atoms: _477  and  _478
REMARK  187  A    between atoms: _477  and  _480
REMARK  188  A    between atoms: _480  and  _481
REMARK  189  A    between atoms: _486  and  _488
REMARK  190  A    between atoms: _488  and  _489
REMARK  191  A    between atoms: _488  and  _491
REMARK  192  A    between atoms: _491  and  _492
REMARK  193  A    between atoms: _495  and  _497
REMARK  194  A    between atoms: _497  and  _498
REMARK  195  A    between atoms: _497  and  _500
REMARK  196  A    between atoms: _500  and  _501
REMARK  197  A    between atoms: _503  and  _505
REMARK  198  A    between atoms: _505  and  _506
REMARK  199  A    between atoms: _505  and  _508
REMARK  200  A    between atoms: _508  and  _509
REMARK  201  A    between atoms: _515  and  _517
REMARK  202  A    between atoms: _517  and  _518
REMARK  203  A    between atoms: _517  and  _520
REMARK  204  A    between atoms: _520  and  _521
REMARK  205  A    between atoms: _521  and  _522
REMARK  206  A    between atoms: _525  and  _527
REMARK  207  A    between atoms: _527  and  _528
REMARK  208  A    between atoms: _527  and  _530
REMARK  209  A    between atoms: _533  and  _535
REMARK  210  A    between atoms: _535  and  _536
REMARK  211  A    between atoms: _535  and  _538
REMARK  212  A    between atoms: _538  and  _539
REMARK  213  A    between atoms: _542  and  _544
REMARK  214  A    between atoms: _544  and  _545
REMARK  215  A    between atoms: _544  and  _547
REMARK  216  A    between atoms: _550  and  _552
REMARK  217  A    between atoms: _552  and  _553
REMARK  218  A    between atoms: _556  and  _558
REMARK  219  A    between atoms: _558  and  _559
REMARK  220  A    between atoms: _558  and  _561
REMARK  221  A    between atoms: _561  and  _562
REMARK  222  A    between atoms: _564  and  _566
REMARK  223  A    between atoms: _566  and  _567
REMARK  224  A    between atoms: _566  and  _569
REMARK  225  A    between atoms: _569  and  _570
REMARK  226  A    between atoms: _572  and  _574
REMARK  227  A    between atoms: _574  and  _575
REMARK  228  A    between atoms: _574  and  _577
REMARK  229  A    between atoms: _577  and  _578
REMARK  230  A    between atoms: _581  and  _583
REMARK  231  A    between atoms: _583  and  _584
REMARK  232  A    between atoms: _583  and  _586
REMARK  233  A    between atoms: _586  and  _587
REMARK  234  A    between atoms: _592  and  _593
REMARK  235  A    between atoms: _595  and  _597
REMARK  236  A    between atoms: _597  and  _598
REMARK  237  A    between atoms: _597  and  _600
REMARK  238  A    between atoms: _600  and  _601
REMARK  239  A    between atoms: _607  and  _609
REMARK  240  A    between atoms: _609  and  _610
REMARK  241  A    between atoms: _609  and  _612
REMARK  242  A    between atoms: _612  and  _613
REMARK  243  A    between atoms: _615  and  _617
REMARK  244  A    between atoms: _617  and  _618
REMARK  245  A    between atoms: _617  and  _620
REMARK  246  A    between atoms: _620  and  _621
REMARK  247  A    between atoms: _624  and  _626
REMARK  248  A    between atoms: _626  and  _627
REMARK  249  A    between atoms: _626  and  _629
REMARK  250  A    between atoms: _629  and  _630
REMARK  251  A    between atoms: _635  and  _636
REMARK                            x       y       z     vdW  Elec       q    Type
REMARK                         _______ _______ _______ _____ _____    ______ ____
ROOT
ATOM      1  CG  TYR A   1       3.738   1.110 -10.032  0.00  0.00    -0.020 A 
ATOM      2  CD2 TYR A   1       4.766   1.044  -9.088  0.00  0.00    -0.001 A 
ATOM      3  CE2 TYR A   1       5.501   2.177  -8.736  0.00  0.00    +0.036 A 
ATOM      4  CZ  TYR A   1       5.209   3.396  -9.332  0.00  0.00    +0.134 A 
ATOM      5  CE1 TYR A   1       4.195   3.492 -10.273  0.00  0.00    +0.036 A 
ATOM      6  CD1 TYR A   1       3.461   2.347 -10.617  0.00  0.00    -0.001 A 
ENDROOT
BRANCH   4   7
ATOM      7  OH  TYR A   1       5.935   4.513  -8.984  0.00  0.00    -0.506 OA
ATOM      8  HH  TYR A   1       5.604   5.293  -9.496  0.00  0.00    +0.292 HD
ENDBRANCH   4   7
BRANCH   1   9
ATOM      9  CB  TYR A   1       2.946  -0.132 -10.408  0.00  0.00    +0.051 C 
BRANCH   9  10
ATOM     10  CA  TYR A   1       2.962  -0.458 -11.913  0.00  0.00    +0.137 C 
BRANCH  10  11
ATOM     11  N   TYR A   1       1.814   0.144 -12.602  0.00  0.00    -0.239 NA
ATOM     12  H   TYR A   1       1.124   0.685 -12.043  0.00  0.00    +0.142 HD
ENDBRANCH  10  11
BRANCH  10  13
ATOM     13  C   TYR A   1       3.012  -1.970 -12.129  0.00  0.00    +0.224 C 
ATOM     14  O   TYR A   1       4.077  -2.519 -12.389  0.00  0.00    -0.287 OA
ENDBRANCH  10  13
ENDBRANCH   9  10
ENDBRANCH   1   9
TORSDOF 5
REMARK  Name = ../refined-set-2016/2ihj/2ihj_pocket.pdb
REMARK  251 active torsions:
REMARK  status: ('A' for Active; 'I' for Inactive)
REMARK    1  A    between atoms: _1  and  _3
REMARK    2  A    between atoms: _3  and  _4
REMARK    3  A    between atoms: _3  and  _6
REMARK    4  A    between atoms: _6  and  _7
REMARK    5  A    between atoms: _11  and  _12
REMARK    6  A    between atoms: _17  and  _19
REMARK    7  A    between atoms: _19  and  _20
REMARK    8  A    between atoms: _23  and  _25
REMARK    9  A    between atoms: _25  and  _26
REMARK   10  A    between atoms: _25  and  _28
REMARK   11  A    between atoms: _28  and  _29
REMARK   12  A    between atoms: _31  and  _33
REMARK   13  A    between atoms: _33  and  _34
REMARK   14  A    between atoms: _33  and  _36
REMARK   15  A    between atoms: _36  and  _37
REMARK   16  A    between atoms: _41  and  _42
REMARK   17  A    between atoms: _47  and  _49
REMARK   18  A    between atoms: _49  and  _50
REMARK   19  A    between atoms: _49  and  _52
REMARK   20  A    between atoms: _52  and  _53
REMARK   21  A    between atoms: _56  and  _58
REMARK   22  A    between atoms: _58  and  _59
REMARK   23  A    between atoms: _58  and  _61
REMARK   24  A    between atoms: _61  and  _62
REMARK   25  A    between atoms: _62  and  _63
REMARK   26  A    between atoms: _63  and  _64
REMARK   27  A    between atoms: _73  and  _75
REMARK   28  A    between atoms: _75  and  _76
REMARK   29  A    between atoms: _75  and  _78
REMARK   30  A    between atoms: _78  and  _79
REMARK   31  A    between atoms: _85  and  _87
REMARK   32  A    between atoms: _87  and  _88
REMARK   33  A    between atoms: _87  and  _90
REMARK   34  A    between atoms: _90  and  _91
REMARK   35  A    between atoms: _96  and  _98
REMARK   36  A    between atoms: _98  and  _99
REMARK   37  A    between atoms: _102  and  _104
REMARK   38  A    between atoms: _104  and  _105
REMARK   39  A    between atoms: _104  and  _107
REMARK   40  A    between atoms: _107  and  _108
REMARK   41  A    between atoms: _113  and  _115
REMARK   42  A    between atoms: _115  and  _116
REMARK   43  A    between atoms: _115  and  _118
REMARK   44  A    between atoms: _118  and  _119
REMARK   45  A    between atoms: _122  and  _124
REMARK   46  A    between atoms: _124  and  _125
REMARK   47  A    between atoms: _124  and  _127
REMARK   48  A    between atoms: _127  and  _128
REMARK   49  A    between atoms: _131  and  _133
REMARK   50  A    between atoms: _133  and  _134
REMARK   51  A    between atoms: _136  and  _138
REMARK   52  A    between atoms: _138  and  _139
REMARK   53  A    between atoms: _138  and  _141
REMARK   54  A    between atoms: _141  and  _142
REMARK   55  A    between atoms: _144  and  _146
REMARK   56  A    between atoms: _146  and  _147
REMARK   57  A    between atoms: _146  and  _149
REMARK   58  A    between atoms: _149  and  _150
REMARK   59  A    between atoms: _150  and  _151
REMARK   60  A    between atoms: _153  and  _155
REMARK   61  A    between atoms: _155  and  _156
REMARK   62  A    between atoms: _155  and  _158
REMARK   63  A    between atoms: _158  and  _159
REMARK   64  A    between atoms: _159  and  _160
REMARK   65  A    between atoms: _163  and  _165
REMARK   66  A    between atoms: _165  and  _166
REMARK   67  A    between atoms: _165  and  _168
REMARK   68  A    between atoms: _168  and  _169
REMARK   69  A    between atoms: _174  and  _175
REMARK   70  A    between atoms: _177  and  _179
REMARK   71  A    between atoms: _179  and  _180
REMARK   72  A    between atoms: _179  and  _182
REMARK   73  A    between atoms: _185  and  _187
REMARK   74  A    between atoms: _187  and  _188
REMARK   75  A    between atoms: _187  and  _190
REMARK   76  A    between atoms: _190  and  _191
REMARK   77  A    between atoms: _194  and  _196
REMARK   78  A    between atoms: _196  and  _197
REMARK   79  A    between atoms: _196  and  _199
REMARK   80  A    between atoms: _199  and  _200
REMARK   81  A    between atoms: _200  and  _201
REMARK   82  A    between atoms: _201  and  _202
REMARK   83  A    between atoms: _202  and  _203
REMARK   84  A    between atoms: _207  and  _209
REMARK   85  A    between atoms: _209  and  _210
REMARK   86  A    between atoms: _209  and  _212
REMARK   87  A    between atoms: _212  and  _213
REMARK   88  A    between atoms: _216  and  _218
REMARK   89  A    between atoms: _218  and  _219
REMARK   90  A    between atoms: _218  and  _221
REMARK   91  A    between atoms: _221  and  _222
REMARK   92  A    between atoms: _222  and  _223
REMARK   93  A    between atoms: _225  and  _227
REMARK   94  A    between atoms: _227  and  _228
REMARK   95  A    between atoms: _227  and  _230
REMARK   96  A    between atoms: _230  and  _231
REMARK   97  A    between atoms: _241  and  _243
REMARK   98  A    between atoms: _243  and  _244
REMARK   99  A    between atoms: _243  and  _246
REMARK  100  A    between atoms: _246  and  _247
REMARK  101  A    between atoms: _250  and  _252
REMARK  102  A    between atoms: _252  and  _253
REMARK  103  A    between atoms: _252  and  _255
REMARK  104  A    between atoms: _255  and  _256
REMARK  105  A    between atoms: _262  and  _264
REMARK  106  A    between atoms: _264  and  _265
REMARK  107  A    between atoms: _264  and  _267
REMARK  108  A    between atoms: _267  and  _268
REMARK  109  A    between atoms: _271  and  _273
REMARK  110  A    between atoms: _273  and  _274
REMARK  111  A    between atoms: _276  and  _278
REMARK  112  A    between atoms: _278  and  _279
REMARK  113  A    between atoms: _278  and  _281
REMARK  114  A    between atoms: _281  and  _282
REMARK  115  A    between atoms: _285  and  _287
REMARK  116  A    between atoms: _287  and  _288
REMARK  117  A    between atoms: _287  and  _290
REMARK  118  A    between atoms: _290  and  _291
REMARK  119  A    between atoms: _294  and  _296
REMARK  120  A    between atoms: _296  and  _297
REMARK  121  A    between atoms: _296  and  _299
REMARK  122  A    between atoms: _299  and  _300
REMARK  123  A    between atoms: _303  and  _305
REMARK  124  A    between atoms: _305  and  _306
REMARK  125  A    between atoms: _305  and  _308
REMARK  126  A    between atoms: _308  and  _309
REMARK  127  A    between atoms: _319  and  _321
REMARK  128  A    between atoms: _321  and  _322
REMARK  129  A    between atoms: _321  and  _324
REMARK  130  A    between atoms: _324  and  _325
REMARK  131  A    between atoms: _325  and  _326
REMARK  132  A    between atoms: _329  and  _331
REMARK  133  A    between atoms: _331  and  _332
REMARK  134  A    between atoms: _331  and  _334
REMARK  135  A    between atoms: _334  and  _335
REMARK  136  A    between atoms: _335  and  _336
REMARK  137  A    between atoms: _336  and  _337
REMARK  138  A    between atoms: _346  and  _348
REMARK  139  A    between atoms: _348  and  _349
REMARK  140  A    between atoms: _348  and  _351
REMARK  141  A    between atoms: _351  and  _352
REMARK  142  A    between atoms: _357  and  _358
REMARK  143  A    between atoms: _360  and  _362
REMARK  144  A    between atoms: _362  and  _363
REMARK  145  A    between atoms: _362  and  _365
REMARK  146  A    between atoms: _365  and  _366
REMARK  147  A    between atoms: _366  and  _367
REMARK  148  A    between atoms: _372  and  _374
REMARK  149  A    between atoms: _374  and  _375
REMARK  150  A    between atoms: _374  and  _377
REMARK  151  A    between atoms: _377  and  _378
REMARK  152  A    between atoms: _384  and  _386
REMARK  153  A    between atoms: _386  and  _387
REMARK  154  A    between atoms: _386  and  _389
REMARK  155  A    between atoms: _389  and  _390
REMARK  156  A    between atoms: _390  and  _391
REMARK  157  A    between atoms: _391  and  _392
REMARK  158  A    between atoms: _392  and  _393
REMARK  159  A    between atoms: _397  and  _399
REMARK  160  A    between atoms: _399  and  _400
REMARK  161  A    between atoms: _402  and  _404
REMARK  162  A    between atoms: _404  and  _405
REMARK  163  A    between atoms: _404  and  _407
REMARK  164  A    between atoms: _407  and  _408
REMARK  165  A    between atoms: _414  and  _415
REMARK  166  A    between atoms: _420  and  _422
REMARK  167  A    between atoms: _422  and  _423
REMARK  168  A    between atoms: _422  and  _425
REMARK  169  A    between atoms: _425  and  _426
REMARK  170  A    between atoms: _426  and  _427
REMARK  171  A    between atoms: _427  and  _428
REMARK  172  A    between atoms: _437  and  _439
REMARK  173  A    between atoms: _439  and  _440
REMARK  174  A    between atoms: _442  and  _444
REMARK  175  A    between atoms: _444  and  _445
REMARK  176  A    between atoms: _444  and  _447
REMARK  177  A    between atoms: _447  and  _448
REMARK  178  A    between atoms: _453  and  _455
REMARK  179  A    between atoms: _455  and  _456
REMARK  180  A    between atoms: _455  and  _458
REMARK  181  A    between atoms: _458  and  _459
REMARK  182  A    between atoms: _463  and  _464
REMARK  183  A    between atoms: _469  and  _471
REMARK  184  A    between atoms: _471  and  _472
REMARK  185  A    between atoms: _475  and  _477
REMARK  186  A    between atoms: _477  and  _478
REMARK  187  A    between atoms: _477  and  _480
REMARK  188  A    between atoms: _480  and  _481
REMARK  189  A    between atoms: _486  and  _488
REMARK  190  A    between atoms: _488  and  _489
REMARK  191  A    between atoms: _488  and  _491
REMARK  192  A    between atoms: _491  and  _492
REMARK  193  A    between atoms: _495  and  _497
REMARK  194  A    between atoms: _497  and  _498
REMARK  195  A    between atoms: _497  and  _500
REMARK  196  A    between atoms: _500  and  _501
REMARK  197  A    between atoms: _503  and  _505
REMARK  198  A    between atoms: _505  and  _506
REMARK  199  A    between atoms: _505  and  _508
REMARK  200  A    between atoms: _508  and  _509
REMARK  201  A    between atoms: _515  and  _517
REMARK  202  A    between atoms: _517  and  _518
REMARK  203  A    between atoms: _517  and  _520
REMARK  204  A    between atoms: _520  and  _521
REMARK  205  A    between atoms: _521  and  _522
REMARK  206  A    between atoms: _525  and  _527
REMARK  207  A    between atoms: _527  and  _528
REMARK  208  A    between atoms: _527  and  _530
REMARK  209  A    between atoms: _533  and  _535
REMARK  210  A    between atoms: _535  and  _536
REMARK  211  A    between atoms: _535  and  _538
REMARK  212  A    between atoms: _538  and  _539
REMARK  213  A    between atoms: _542  and  _544
REMARK  214  A    between atoms: _544  and  _545
REMARK  215  A    between atoms: _544  and  _547
REMARK  216  A    between atoms: _550  and  _552
REMARK  217  A    between atoms: _552  and  _553
REMARK  218  A    between atoms: _556  and  _558
REMARK  219  A    between atoms: _558  and  _559
REMARK  220  A    between atoms: _558  and  _561
REMARK  221  A    between atoms: _561  and  _562
REMARK  222  A    between atoms: _564  and  _566
REMARK  223  A    between atoms: _566  and  _567
REMARK  224  A    between atoms: _566  and  _569
REMARK  225  A    between atoms: _569  and  _570
REMARK  226  A    between atoms: _572  and  _574
REMARK  227  A    between atoms: _574  and  _575
REMARK  228  A    between atoms: _574  and  _577
REMARK  229  A    between atoms: _577  and  _578
REMARK  230  A    between atoms: _581  and  _583
REMARK  231  A    between atoms: _583  and  _584
REMARK  232  A    between atoms: _583  and  _586
REMARK  233  A    between atoms: _586  and  _587
REMARK  234  A    between atoms: _592  and  _593
REMARK  235  A    between atoms: _595  and  _597
REMARK  236  A    between atoms: _597  and  _598
REMARK  237  A    between atoms: _597  and  _600
REMARK  238  A    between atoms: _600  and  _601
REMARK  239  A    between atoms: _607  and  _609
REMARK  240  A    between atoms: _609  and  _610
REMARK  241  A    between atoms: _609  and  _612
REMARK  242  A    between atoms: _612  and  _613
REMARK  243  A    between atoms: _615  and  _617
REMARK  244  A    between atoms: _617  and  _618
REMARK  245  A    between atoms: _617  and  _620
REMARK  246  A    between atoms: _620  and  _621
REMARK  247  A    between atoms: _624  and  _626
REMARK  248  A    between atoms: _626  and  _627
REMARK  249  A    between atoms: _626  and  _629
REMARK  250  A    between atoms: _629  and  _630
REMARK  251  A    between atoms: _635  and  _636
REMARK                            x       y       z     vdW  Elec       q    Type
REMARK                         _______ _______ _______ _____ _____    ______ ____
ROOT
ATOM      1  CB  GLN A   1       6.410  -4.771 -11.997  0.00  0.00    +0.035 C 
ENDROOT
BRANCH   1   2
ATOM      2  CA  GLN A   1       6.902  -4.665 -13.458  0.00  0.00    +0.134 C 
BRANCH   2   3
ATOM      3  N   GLN A   1       6.082  -3.725 -14.235  0.00  0.00    -0.239 NA
ATOM      4  H   GLN A   1       5.177  -3.399 -13.840  0.00  0.00    +0.142 HD
ENDBRANCH   2   3
BRANCH   2   5
ATOM      5  C   GLN A   1       6.985  -6.045 -14.127  0.00  0.00    +0.224 C 
ATOM      6  O   GLN A   1       8.048  -6.663 -14.126  0.00  0.00    -0.287 OA
ENDBRANCH   2   5
ENDBRANCH   1   2
BRANCH   1   7
ATOM      7  CG  GLN A   1       7.250  -5.699 -11.112  0.00  0.00    +0.087 C 
BRANCH   7   8
ATOM      8  CD  GLN A   1       6.905  -5.590  -9.633  0.00  0.00    +0.219 C 
ATOM      9  NE2 GLN A   1       7.462  -4.583  -8.969  0.00  0.00    -0.329 N 
ATOM     10 HE21 GLN A   1       7.261  -4.453  -7.957  0.00  0.00    +0.145 HD
ATOM     11 HE22 GLN A   1       8.099  -3.924  -9.461  0.00  0.00    +0.145 HD
ATOM     12  OE1 GLN A   1       6.142  -6.400  -9.095  0.00  0.00    -0.275 OA
ENDBRANCH   7   8
ENDBRANCH   1   7
TORSDOF 5
REMARK  Name = ../refined-set-2016/2ihj/2ihj_pocket.pdb
REMARK  251 active torsions:
REMARK  status: ('A' for Active; 'I' for Inactive)
REMARK    1  A    between atoms: _1  and  _3
REMARK    2  A    between atoms: _3  and  _4
REMARK    3  A    between atoms: _3  and  _6
REMARK    4  A    between atoms: _6  and  _7
REMARK    5  A    between atoms: _11  and  _12
REMARK    6  A    between atoms: _17  and  _19
REMARK    7  A    between atoms: _19  and  _20
REMARK    8  A    between atoms: _23  and  _25
REMARK    9  A    between atoms: _25  and  _26
REMARK   10  A    between atoms: _25  and  _28
REMARK   11  A    between atoms: _28  and  _29
REMARK   12  A    between atoms: _31  and  _33
REMARK   13  A    between atoms: _33  and  _34
REMARK   14  A    between atoms: _33  and  _36
REMARK   15  A    between atoms: _36  and  _37
REMARK   16  A    between atoms: _41  and  _42
REMARK   17  A    between atoms: _47  and  _49
REMARK   18  A    between atoms: _49  and  _50
REMARK   19  A    between atoms: _49  and  _52
REMARK   20  A    between atoms: _52  and  _53
REMARK   21  A    between atoms: _56  and  _58
REMARK   22  A    between atoms: _58  and  _59
REMARK   23  A    between atoms: _58  and  _61
REMARK   24  A    between atoms: _61  and  _62
REMARK   25  A    between atoms: _62  and  _63
REMARK   26  A    between atoms: _63  and  _64
REMARK   27  A    between atoms: _73  and  _75
REMARK   28  A    between atoms: _75  and  _76
REMARK   29  A    between atoms: _75  and  _78
REMARK   30  A    between atoms: _78  and  _79
REMARK   31  A    between atoms: _85  and  _87
REMARK   32  A    between atoms: _87  and  _88
REMARK   33  A    between atoms: _87  and  _90
REMARK   34  A    between atoms: _90  and  _91
REMARK   35  A    between atoms: _96  and  _98
REMARK   36  A    between atoms: _98  and  _99
REMARK   37  A    between atoms: _102  and  _104
REMARK   38  A    between atoms: _104  and  _105
REMARK   39  A    between atoms: _104  and  _107
REMARK   40  A    between atoms: _107  and  _108
REMARK   41  A    between atoms: _113  and  _115
REMARK   42  A    between atoms: _115  and  _116
REMARK   43  A    between atoms: _115  and  _118
REMARK   44  A    between atoms: _118  and  _119
REMARK   45  A    between atoms: _122  and  _124
REMARK   46  A    between atoms: _124  and  _125
REMARK   47  A    between atoms: _124  and  _127
REMARK   48  A    between atoms: _127  and  _128
REMARK   49  A    between atoms: _131  and  _133
REMARK   50  A    between atoms: _133  and  _134
REMARK   51  A    between atoms: _136  and  _138
REMARK   52  A    between atoms: _138  and  _139
REMARK   53  A    between atoms: _138  and  _141
REMARK   54  A    between atoms: _141  and  _142
REMARK   55  A    between atoms: _144  and  _146
REMARK   56  A    between atoms: _146  and  _147
REMARK   57  A    between atoms: _146  and  _149
REMARK   58  A    between atoms: _149  and  _150
REMARK   59  A    between atoms: _150  and  _151
REMARK   60  A    between atoms: _153  and  _155
REMARK   61  A    between atoms: _155  and  _156
REMARK   62  A    between atoms: _155  and  _158
REMARK   63  A    between atoms: _158  and  _159
REMARK   64  A    between atoms: _159  and  _160
REMARK   65  A    between atoms: _163  and  _165
REMARK   66  A    between atoms: _165  and  _166
REMARK   67  A    between atoms: _165  and  _168
REMARK   68  A    between atoms: _168  and  _169
REMARK   69  A    between atoms: _174  and  _175
REMARK   70  A    between atoms: _177  and  _179
REMARK   71  A    between atoms: _179  and  _180
REMARK   72  A    between atoms: _179  and  _182
REMARK   73  A    between atoms: _185  and  _187
REMARK   74  A    between atoms: _187  and  _188
REMARK   75  A    between atoms: _187  and  _190
REMARK   76  A    between atoms: _190  and  _191
REMARK   77  A    between atoms: _194  and  _196
REMARK   78  A    between atoms: _196  and  _197
REMARK   79  A    between atoms: _196  and  _199
REMARK   80  A    between atoms: _199  and  _200
REMARK   81  A    between atoms: _200  and  _201
REMARK   82  A    between atoms: _201  and  _202
REMARK   83  A    between atoms: _202  and  _203
REMARK   84  A    between atoms: _207  and  _209
REMARK   85  A    between atoms: _209  and  _210
REMARK   86  A    between atoms: _209  and  _212
REMARK   87  A    between atoms: _212  and  _213
REMARK   88  A    between atoms: _216  and  _218
REMARK   89  A    between atoms: _218  and  _219
REMARK   90  A    between atoms: _218  and  _221
REMARK   91  A    between atoms: _221  and  _222
REMARK   92  A    between atoms: _222  and  _223
REMARK   93  A    between atoms: _225  and  _227
REMARK   94  A    between atoms: _227  and  _228
REMARK   95  A    between atoms: _227  and  _230
REMARK   96  A    between atoms: _230  and  _231
REMARK   97  A    between atoms: _241  and  _243
REMARK   98  A    between atoms: _243  and  _244
REMARK   99  A    between atoms: _243  and  _246
REMARK  100  A    between atoms: _246  and  _247
REMARK  101  A    between atoms: _250  and  _252
REMARK  102  A    between atoms: _252  and  _253
REMARK  103  A    between atoms: _252  and  _255
REMARK  104  A    between atoms: _255  and  _256
REMARK  105  A    between atoms: _262  and  _264
REMARK  106  A    between atoms: _264  and  _265
REMARK  107  A    between atoms: _264  and  _267
REMARK  108  A    between atoms: _267  and  _268
REMARK  109  A    between atoms: _271  and  _273
REMARK  110  A    between atoms: _273  and  _274
REMARK  111  A    between atoms: _276  and  _278
REMARK  112  A    between atoms: _278  and  _279
REMARK  113  A    between atoms: _278  and  _281
REMARK  114  A    between atoms: _281  and  _282
REMARK  115  A    between atoms: _285  and  _287
REMARK  116  A    between atoms: _287  and  _288
REMARK  117  A    between atoms: _287  and  _290
REMARK  118  A    between atoms: _290  and  _291
REMARK  119  A    between atoms: _294  and  _296
REMARK  120  A    between atoms: _296  and  _297
REMARK  121  A    between atoms: _296  and  _299
REMARK  122  A    between atoms: _299  and  _300
REMARK  123  A    between atoms: _303  and  _305
REMARK  124  A    between atoms: _305  and  _306
REMARK  125  A    between atoms: _305  and  _308
REMARK  126  A    between atoms: _308  and  _309
REMARK  127  A    between atoms: _319  and  _321
REMARK  128  A    between atoms: _321  and  _322
REMARK  129  A    between atoms: _321  and  _324
REMARK  130  A    between atoms: _324  and  _325
REMARK  131  A    between atoms: _325  and  _326
REMARK  132  A    between atoms: _329  and  _331
REMARK  133  A    between atoms: _331  and  _332
REMARK  134  A    between atoms: _331  and  _334
REMARK  135  A    between atoms: _334  and  _335
REMARK  136  A    between atoms: _335  and  _336
REMARK  137  A    between atoms: _336  and  _337
REMARK  138  A    between atoms: _346  and  _348
REMARK  139  A    between atoms: _348  and  _349
REMARK  140  A    between atoms: _348  and  _351
REMARK  141  A    between atoms: _351  and  _352
REMARK  142  A    between atoms: _357  and  _358
REMARK  143  A    between atoms: _360  and  _362
REMARK  144  A    between atoms: _362  and  _363
REMARK  145  A    between atoms: _362  and  _365
REMARK  146  A    between atoms: _365  and  _366
REMARK  147  A    between atoms: _366  and  _367
REMARK  148  A    between atoms: _372  and  _374
REMARK  149  A    between atoms: _374  and  _375
REMARK  150  A    between atoms: _374  and  _377
REMARK  151  A    between atoms: _377  and  _378
REMARK  152  A    between atoms: _384  and  _386
REMARK  153  A    between atoms: _386  and  _387
REMARK  154  A    between atoms: _386  and  _389
REMARK  155  A    between atoms: _389  and  _390
REMARK  156  A    between atoms: _390  and  _391
REMARK  157  A    between atoms: _391  and  _392
REMARK  158  A    between atoms: _392  and  _393
REMARK  159  A    between atoms: _397  and  _399
REMARK  160  A    between atoms: _399  and  _400
REMARK  161  A    between atoms: _402  and  _404
REMARK  162  A    between atoms: _404  and  _405
REMARK  163  A    between atoms: _404  and  _407
REMARK  164  A    between atoms: _407  and  _408
REMARK  165  A    between atoms: _414  and  _415
REMARK  166  A    between atoms: _420  and  _422
REMARK  167  A    between atoms: _422  and  _423
REMARK  168  A    between atoms: _422  and  _425
REMARK  169  A    between atoms: _425  and  _426
REMARK  170  A    between atoms: _426  and  _427
REMARK  171  A    between atoms: _427  and  _428
REMARK  172  A    between atoms: _437  and  _439
REMARK  173  A    between atoms: _439  and  _440
REMARK  174  A    between atoms: _442  and  _444
REMARK  175  A    between atoms: _444  and  _445
REMARK  176  A    between atoms: _444  and  _447
REMARK  177  A    between atoms: _447  and  _448
REMARK  178  A    between atoms: _453  and  _455
REMARK  179  A    between atoms: _455  and  _456
REMARK  180  A    between atoms: _455  and  _458
REMARK  181  A    between atoms: _458  and  _459
REMARK  182  A    between atoms: _463  and  _464
REMARK  183  A    between atoms: _469  and  _471
REMARK  184  A    between atoms: _471  and  _472
REMARK  185  A    between atoms: _475  and  _477
REMARK  186  A    between atoms: _477  and  _478
REMARK  187  A    between atoms: _477  and  _480
REMARK  188  A    between atoms: _480  and  _481
REMARK  189  A    between atoms: _486  and  _488
REMARK  190  A    between atoms: _488  and  _489
REMARK  191  A    between atoms: _488  and  _491
REMARK  192  A    between atoms: _491  and  _492
REMARK  193  A    between atoms: _495  and  _497
REMARK  194  A    between atoms: _497  and  _498
REMARK  195  A    between atoms: _497  and  _500
REMARK  196  A    between atoms: _500  and  _501
REMARK  197  A    between atoms: _503  and  _505
REMARK  198  A    between atoms: _505  and  _506
REMARK  199  A    between atoms: _505  and  _508
REMARK  200  A    between atoms: _508  and  _509
REMARK  201  A    between atoms: _515  and  _517
REMARK  202  A    between atoms: _517  and  _518
REMARK  203  A    between atoms: _517  and  _520
REMARK  204  A    between atoms: _520  and  _521
REMARK  205  A    between atoms: _521  and  _522
REMARK  206  A    between atoms: _525  and  _527
REMARK  207  A    between atoms: _527  and  _528
REMARK  208  A    between atoms: _527  and  _530
REMARK  209  A    between atoms: _533  and  _535
REMARK  210  A    between atoms: _535  and  _536
REMARK  211  A    between atoms: _535  and  _538
REMARK  212  A    between atoms: _538  and  _539
REMARK  213  A    between atoms: _542  and  _544
REMARK  214  A    between atoms: _544  and  _545
REMARK  215  A    between atoms: _544  and  _547
REMARK  216  A    between atoms: _550  and  _552
REMARK  217  A    between atoms: _552  and  _553
REMARK  218  A    between atoms: _556  and  _558
REMARK  219  A    between atoms: _558  and  _559
REMARK  220  A    between atoms: _558  and  _561
REMARK  221  A    between atoms: _561  and  _562
REMARK  222  A    between atoms: _564  and  _566
REMARK  223  A    between atoms: _566  and  _567
REMARK  224  A    between atoms: _566  and  _569
REMARK  225  A    between atoms: _569  and  _570
REMARK  226  A    between atoms: _572  and  _574
REMARK  227  A    between atoms: _574  and  _575
REMARK  228  A    between atoms: _574  and  _577
REMARK  229  A    between atoms: _577  and  _578
REMARK  230  A    between atoms: _581  and  _583
REMARK  231  A    between atoms: _583  and  _584
REMARK  232  A    between atoms: _583  and  _586
REMARK  233  A    between atoms: _586  and  _587
REMARK  234  A    between atoms: _592  and  _593
REMARK  235  A    between atoms: _595  and  _597
REMARK  236  A    between atoms: _597  and  _598
REMARK  237  A    between atoms: _597  and  _600
REMARK  238  A    between atoms: _600  and  _601
REMARK  239  A    between atoms: _607  and  _609
REMARK  240  A    between atoms: _609  and  _610
REMARK  241  A    between atoms: _609  and  _612
REMARK  242  A    between atoms: _612  and  _613
REMARK  243  A    between atoms: _615  and  _617
REMARK  244  A    between atoms: _617  and  _618
REMARK  245  A    between atoms: _617  and  _620
REMARK  246  A    between atoms: _620  and  _621
REMARK  247  A    between atoms: _624  and  _626
REMARK  248  A    between atoms: _626  and  _627
REMARK  249  A    between atoms: _626  and  _629
REMARK  250  A    between atoms: _629  and  _630
REMARK  251  A    between atoms: _635  and  _636
REMARK                            x       y       z     vdW  Elec       q    Type
REMARK                         _______ _______ _______ _____ _____    ______ ____
ROOT
ATOM      1  CA  HIS A   4       7.378  -5.883  -1.672  0.00  0.00    +0.155 C 
ENDROOT
BRANCH   1   2
ATOM      2  C   HIS A   4       6.347  -6.286  -0.596  0.00  0.00    +0.244 C 
ATOM      3  N   PRO A   5       6.682  -6.111   0.709  0.00  0.00    -0.272 N 
ATOM      4  CA  PRO A   5       5.739  -6.478   1.779  0.00  0.00    +0.152 C 
ATOM      5  CB  PRO A   5       6.424  -5.971   3.058  0.00  0.00    +0.031 C 
ATOM      6  CG  PRO A   5       7.862  -5.887   2.724  0.00  0.00    +0.024 C 
ATOM      7  CD  PRO A   5       7.945  -5.576   1.253  0.00  0.00    +0.094 C 
ATOM      8  O   HIS A   4       5.256  -6.752  -0.944  0.00  0.00    -0.273 OA
BRANCH   4   9
ATOM      9  C   PRO A   5       4.332  -5.865   1.652  0.00  0.00    +0.241 C 
ATOM     10  O   PRO A   5       3.369  -6.451   2.150  0.00  0.00    -0.273 OA
ATOM     11  N   ARG A   6       4.223  -4.710   0.993  0.00  0.00    -0.297 N 
ATOM     12  H   ARG A   6       5.084  -4.272   0.608  0.00  0.00    +0.150 HD
BRANCH  11  13
ATOM     13  CA  ARG A   6       2.934  -4.032   0.790  0.00  0.00    +0.149 C 
BRANCH  13  14
ATOM     14  C   ARG A   6       2.487  -3.986  -0.685  0.00  0.00    +0.241 C 
ATOM     15  O   ARG A   6       1.628  -3.178  -1.049  0.00  0.00    -0.273 OA
ATOM     16  N   GLY A   7       3.060  -4.853  -1.520  0.00  0.00    -0.296 N 
ATOM     17  H   GLY A   7       3.755  -5.527  -1.141  0.00  0.00    +0.150 HD
BRANCH  16  18
ATOM     18  CA  GLY A   7       2.747  -4.893  -2.961  0.00  0.00    +0.163 C 
BRANCH  18  19
ATOM     19  C   GLY A   7       1.302  -5.228  -3.305  0.00  0.00    +0.229 C 
ATOM     20  O   GLY A   7       0.754  -4.710  -4.289  0.00  0.00    -0.286 OA
ENDBRANCH  18  19
ENDBRANCH  16  18
ENDBRANCH  13  14
BRANCH  13  21
ATOM     21  CB  ARG A   6       2.974  -2.600   1.365  0.00  0.00    +0.033 C 
BRANCH  21  22
ATOM     22  CG  ARG A   6       3.329  -2.482   2.857  0.00  0.00    +0.045 C 
BRANCH  22  23
ATOM     23  CD  ARG A   6       2.393  -3.297   3.743  0.00  0.00    +0.174 C 
BRANCH  23  24
ATOM     24  NE  ARG A   6       1.048  -2.731   3.801  0.00  0.00    -0.265 N 
ATOM     25  CZ  ARG A   6      -0.055  -3.429   4.064  0.00  0.00    +0.342 C 
ATOM     26  NH2 ARG A   6       0.012  -4.738   4.286  0.00  0.00    -0.292 N 
ATOM     27 HH21 ARG A   6      -0.854  -5.276   4.491  0.00  0.00    +0.255 HD
ATOM     28 HH22 ARG A   6       0.931  -5.224   4.255  0.00  0.00    +0.255 HD
ATOM     29  NH1 ARG A   6      -1.232  -2.817   4.098  0.00  0.00    -0.292 N 
ATOM     30 HH11 ARG A   6      -2.095  -3.360   4.303  0.00  0.00    +0.255 HD
ATOM     31 HH12 ARG A   6      -1.292  -1.794   3.919  0.00  0.00    +0.255 HD
ATOM     32  HE  ARG A   6       0.944  -1.711   3.625  0.00  0.00    +0.259 HD
ENDBRANCH  23  24
ENDBRANCH  22  23
ENDBRANCH  21  22
ENDBRANCH  13  21
ENDBRANCH  11  13
ENDBRANCH   4   9
ENDBRANCH   1   2
BRANCH   1  35
ATOM     33  C   GLY A   3       7.768  -8.137  -2.553  0.00  0.00    +0.243 C 
ATOM     34  O   GLY A   3       8.233  -8.538  -1.470  0.00  0.00    -0.273 OA
ATOM     35  N   HIS A   4       7.387  -6.876  -2.754  0.00  0.00    -0.297 N 
ATOM     36  H   HIS A   4       7.087  -6.586  -3.707  0.00  0.00    +0.150 HD
BRANCH  33  37
ATOM     37  CA  GLY A   3       7.595  -9.081  -3.739  0.00  0.00    +0.176 C 
BRANCH  37  39
ATOM     38  C   LYS A   2       9.760 -10.220  -3.831  0.00  0.00    +0.241 C 
ATOM     39  N   GLY A   3       8.439 -10.278  -3.673  0.00  0.00    -0.295 N 
ATOM     40  H   GLY A   3       7.992 -11.201  -3.497  0.00  0.00    +0.150 HD
ATOM     41  O   LYS A   2      10.362  -9.173  -4.062  0.00  0.00    -0.273 OA
BRANCH  38  42
ATOM     42  CA  LYS A   2      10.509 -11.549  -3.730  0.00  0.00    +0.149 C 
BRANCH  42  45
ATOM     43  C   PHE A   1      10.059 -13.274  -5.428  0.00  0.00    +0.239 C 
ATOM     44  O   PHE A   1       9.557 -14.058  -4.609  0.00  0.00    -0.274 OA
ATOM     45  N   LYS A   2      10.601 -12.105  -5.085  0.00  0.00    -0.297 N 
ATOM     46  H   LYS A   2      11.112 -11.563  -5.811  0.00  0.00    +0.150 HD
BRANCH  43  47
ATOM     47  CA  PHE A   1      10.115 -13.634  -6.923  0.00  0.00    +0.149 C 
BRANCH  47  48
ATOM     48  N   PHE A   1      10.759 -14.942  -7.121  0.00  0.00    -0.238 NA
ATOM     49  H   PHE A   1      10.318 -15.782  -6.694  0.00  0.00    +0.142 HD
ENDBRANCH  47  48
BRANCH  47  50
ATOM     50  CB  PHE A   1       8.701 -13.630  -7.537  0.00  0.00    +0.053 C 
BRANCH  50  51
ATOM     51  CG  PHE A   1       7.931 -12.328  -7.356  0.00  0.00    -0.020 A 
ATOM     52  CD2 PHE A   1       6.634 -12.342  -6.840  0.00  0.00    -0.004 A 
ATOM     53  CE2 PHE A   1       5.903 -11.151  -6.678  0.00  0.00    -0.000 A 
ATOM     54  CZ  PHE A   1       6.475  -9.925  -7.056  0.00  0.00    -0.000 A 
ATOM     55  CE1 PHE A   1       7.766  -9.901  -7.578  0.00  0.00    -0.000 A 
ATOM     56  CD1 PHE A   1       8.486 -11.101  -7.732  0.00  0.00    -0.004 A 
ENDBRANCH  50  51
ENDBRANCH  47  50
ENDBRANCH  43  47
ENDBRANCH  42  45
BRANCH  42  57
ATOM     57  CB  LYS A   2      11.915 -11.373  -3.105  0.00  0.00    +0.029 C 
BRANCH  57  58
ATOM     58  CG  LYS A   2      12.008 -10.685  -1.712  0.00  0.00    +0.000 C 
BRANCH  58  59
ATOM     59  CD  LYS A   2      11.463 -11.533  -0.544  0.00  0.00    -0.024 C 
BRANCH  59  60
ATOM     60  CE  LYS A   2      10.060 -11.089  -0.115  0.00  0.00    -0.086 C 
BRANCH  60  61
ATOM     61  NZ  LYS A   2      10.066  -9.761   0.594  0.00  0.00    +0.380 N 
ATOM     62  HZ1 LYS A   2      10.656  -9.828   1.448  0.00  0.00    -0.089 HD
ATOM     63  HZ2 LYS A   2       9.093  -9.508   0.862  0.00  0.00    -0.089 HD
ATOM     64  HZ3 LYS A   2      10.453  -9.033  -0.040  0.00  0.00    -0.089 HD
ENDBRANCH  60  61
ENDBRANCH  59  60
ENDBRANCH  58  59
ENDBRANCH  57  58
ENDBRANCH  42  57
ENDBRANCH  38  42
ENDBRANCH  37  39
ENDBRANCH  33  37
ENDBRANCH   1  35
BRANCH   1  65
ATOM     65  CB  HIS A   4       7.060  -4.494  -2.243  0.00  0.00    +0.076 C 
BRANCH  65  66
ATOM     66  CG  HIS A   4       7.304  -3.376  -1.276  0.00  0.00    +0.082 A 
ATOM     67  ND1 HIS A   4       6.422  -3.060  -0.266  0.00  0.00    -0.227 NA
ATOM     68  CE1 HIS A   4       6.901  -2.046   0.434  0.00  0.00    +0.199 A 
ATOM     69  NE2 HIS A   4       8.066  -1.698  -0.083  0.00  0.00    -0.221 NA
ATOM     70  CD2 HIS A   4       8.340  -2.514  -1.154  0.00  0.00    +0.115 A 
ENDBRANCH  65  66
ENDBRANCH   1  65
TORSDOF 26
REMARK  Name = ../refined-set-2016/2ihj/2ihj_pocket.pdb
REMARK  251 active torsions:
REMARK  status: ('A' for Active; 'I' for Inactive)
REMARK    1  A    between atoms: _1  and  _3
REMARK    2  A    between atoms: _3  and  _4
REMARK    3  A    between atoms: _3  and  _6
REMARK    4  A    between atoms: _6  and  _7
REMARK    5  A    between atoms: _11  and  _12
REMARK    6  A    between atoms: _17  and  _19
REMARK    7  A    between atoms: _19  and  _20
REMARK    8  A    between atoms: _23  and  _25
REMARK    9  A    between atoms: _25  and  _26
REMARK   10  A    between atoms: _25  and  _28
REMARK   11  A    between atoms: _28  and  _29
REMARK   12  A    between atoms: _31  and  _33
REMARK   13  A    between atoms: _33  and  _34
REMARK   14  A    between atoms: _33  and  _36
REMARK   15  A    between atoms: _36  and  _37
REMARK   16  A    between atoms: _41  and  _42
REMARK   17  A    between atoms: _47  and  _49
REMARK   18  A    between atoms: _49  and  _50
REMARK   19  A    between atoms: _49  and  _52
REMARK   20  A    between atoms: _52  and  _53
REMARK   21  A    between atoms: _56  and  _58
REMARK   22  A    between atoms: _58  and  _59
REMARK   23  A    between atoms: _58  and  _61
REMARK   24  A    between atoms: _61  and  _62
REMARK   25  A    between atoms: _62  and  _63
REMARK   26  A    between atoms: _63  and  _64
REMARK   27  A    between atoms: _73  and  _75
REMARK   28  A    between atoms: _75  and  _76
REMARK   29  A    between atoms: _75  and  _78
REMARK   30  A    between atoms: _78  and  _79
REMARK   31  A    between atoms: _85  and  _87
REMARK   32  A    between atoms: _87  and  _88
REMARK   33  A    between atoms: _87  and  _90
REMARK   34  A    between atoms: _90  and  _91
REMARK   35  A    between atoms: _96  and  _98
REMARK   36  A    between atoms: _98  and  _99
REMARK   37  A    between atoms: _102  and  _104
REMARK   38  A    between atoms: _104  and  _105
REMARK   39  A    between atoms: _104  and  _107
REMARK   40  A    between atoms: _107  and  _108
REMARK   41  A    between atoms: _113  and  _115
REMARK   42  A    between atoms: _115  and  _116
REMARK   43  A    between atoms: _115  and  _118
REMARK   44  A    between atoms: _118  and  _119
REMARK   45  A    between atoms: _122  and  _124
REMARK   46  A    between atoms: _124  and  _125
REMARK   47  A    between atoms: _124  and  _127
REMARK   48  A    between atoms: _127  and  _128
REMARK   49  A    between atoms: _131  and  _133
REMARK   50  A    between atoms: _133  and  _134
REMARK   51  A    between atoms: _136  and  _138
REMARK   52  A    between atoms: _138  and  _139
REMARK   53  A    between atoms: _138  and  _141
REMARK   54  A    between atoms: _141  and  _142
REMARK   55  A    between atoms: _144  and  _146
REMARK   56  A    between atoms: _146  and  _147
REMARK   57  A    between atoms: _146  and  _149
REMARK   58  A    between atoms: _149  and  _150
REMARK   59  A    between atoms: _150  and  _151
REMARK   60  A    between atoms: _153  and  _155
REMARK   61  A    between atoms: _155  and  _156
REMARK   62  A    between atoms: _155  and  _158
REMARK   63  A    between atoms: _158  and  _159
REMARK   64  A    between atoms: _159  and  _160
REMARK   65  A    between atoms: _163  and  _165
REMARK   66  A    between atoms: _165  and  _166
REMARK   67  A    between atoms: _165  and  _168
REMARK   68  A    between atoms: _168  and  _169
REMARK   69  A    between atoms: _174  and  _175
REMARK   70  A    between atoms: _177  and  _179
REMARK   71  A    between atoms: _179  and  _180
REMARK   72  A    between atoms: _179  and  _182
REMARK   73  A    between atoms: _185  and  _187
REMARK   74  A    between atoms: _187  and  _188
REMARK   75  A    between atoms: _187  and  _190
REMARK   76  A    between atoms: _190  and  _191
REMARK   77  A    between atoms: _194  and  _196
REMARK   78  A    between atoms: _196  and  _197
REMARK   79  A    between atoms: _196  and  _199
REMARK   80  A    between atoms: _199  and  _200
REMARK   81  A    between atoms: _200  and  _201
REMARK   82  A    between atoms: _201  and  _202
REMARK   83  A    between atoms: _202  and  _203
REMARK   84  A    between atoms: _207  and  _209
REMARK   85  A    between atoms: _209  and  _210
REMARK   86  A    between atoms: _209  and  _212
REMARK   87  A    between atoms: _212  and  _213
REMARK   88  A    between atoms: _216  and  _218
REMARK   89  A    between atoms: _218  and  _219
REMARK   90  A    between atoms: _218  and  _221
REMARK   91  A    between atoms: _221  and  _222
REMARK   92  A    between atoms: _222  and  _223
REMARK   93  A    between atoms: _225  and  _227
REMARK   94  A    between atoms: _227  and  _228
REMARK   95  A    between atoms: _227  and  _230
REMARK   96  A    between atoms: _230  and  _231
REMARK   97  A    between atoms: _241  and  _243
REMARK   98  A    between atoms: _243  and  _244
REMARK   99  A    between atoms: _243  and  _246
REMARK  100  A    between atoms: _246  and  _247
REMARK  101  A    between atoms: _250  and  _252
REMARK  102  A    between atoms: _252  and  _253
REMARK  103  A    between atoms: _252  and  _255
REMARK  104  A    between atoms: _255  and  _256
REMARK  105  A    between atoms: _262  and  _264
REMARK  106  A    between atoms: _264  and  _265
REMARK  107  A    between atoms: _264  and  _267
REMARK  108  A    between atoms: _267  and  _268
REMARK  109  A    between atoms: _271  and  _273
REMARK  110  A    between atoms: _273  and  _274
REMARK  111  A    between atoms: _276  and  _278
REMARK  112  A    between atoms: _278  and  _279
REMARK  113  A    between atoms: _278  and  _281
REMARK  114  A    between atoms: _281  and  _282
REMARK  115  A    between atoms: _285  and  _287
REMARK  116  A    between atoms: _287  and  _288
REMARK  117  A    between atoms: _287  and  _290
REMARK  118  A    between atoms: _290  and  _291
REMARK  119  A    between atoms: _294  and  _296
REMARK  120  A    between atoms: _296  and  _297
REMARK  121  A    between atoms: _296  and  _299
REMARK  122  A    between atoms: _299  and  _300
REMARK  123  A    between atoms: _303  and  _305
REMARK  124  A    between atoms: _305  and  _306
REMARK  125  A    between atoms: _305  and  _308
REMARK  126  A    between atoms: _308  and  _309
REMARK  127  A    between atoms: _319  and  _321
REMARK  128  A    between atoms: _321  and  _322
REMARK  129  A    between atoms: _321  and  _324
REMARK  130  A    between atoms: _324  and  _325
REMARK  131  A    between atoms: _325  and  _326
REMARK  132  A    between atoms: _329  and  _331
REMARK  133  A    between atoms: _331  and  _332
REMARK  134  A    between atoms: _331  and  _334
REMARK  135  A    between atoms: _334  and  _335
REMARK  136  A    between atoms: _335  and  _336
REMARK  137  A    between atoms: _336  and  _337
REMARK  138  A    between atoms: _346  and  _348
REMARK  139  A    between atoms: _348  and  _349
REMARK  140  A    between atoms: _348  and  _351
REMARK  141  A    between atoms: _351  and  _352
REMARK  142  A    between atoms: _357  and  _358
REMARK  143  A    between atoms: _360  and  _362
REMARK  144  A    between atoms: _362  and  _363
REMARK  145  A    between atoms: _362  and  _365
REMARK  146  A    between atoms: _365  and  _366
REMARK  147  A    between atoms: _366  and  _367
REMARK  148  A    between atoms: _372  and  _374
REMARK  149  A    between atoms: _374  and  _375
REMARK  150  A    between atoms: _374  and  _377
REMARK  151  A    between atoms: _377  and  _378
REMARK  152  A    between atoms: _384  and  _386
REMARK  153  A    between atoms: _386  and  _387
REMARK  154  A    between atoms: _386  and  _389
REMARK  155  A    between atoms: _389  and  _390
REMARK  156  A    between atoms: _390  and  _391
REMARK  157  A    between atoms: _391  and  _392
REMARK  158  A    between atoms: _392  and  _393
REMARK  159  A    between atoms: _397  and  _399
REMARK  160  A    between atoms: _399  and  _400
REMARK  161  A    between atoms: _402  and  _404
REMARK  162  A    between atoms: _404  and  _405
REMARK  163  A    between atoms: _404  and  _407
REMARK  164  A    between atoms: _407  and  _408
REMARK  165  A    between atoms: _414  and  _415
REMARK  166  A    between atoms: _420  and  _422
REMARK  167  A    between atoms: _422  and  _423
REMARK  168  A    between atoms: _422  and  _425
REMARK  169  A    between atoms: _425  and  _426
REMARK  170  A    between atoms: _426  and  _427
REMARK  171  A    between atoms: _427  and  _428
REMARK  172  A    between atoms: _437  and  _439
REMARK  173  A    between atoms: _439  and  _440
REMARK  174  A    between atoms: _442  and  _444
REMARK  175  A    between atoms: _444  and  _445
REMARK  176  A    between atoms: _444  and  _447
REMARK  177  A    between atoms: _447  and  _448
REMARK  178  A    between atoms: _453  and  _455
REMARK  179  A    between atoms: _455  and  _456
REMARK  180  A    between atoms: _455  and  _458
REMARK  181  A    between atoms: _458  and  _459
REMARK  182  A    between atoms: _463  and  _464
REMARK  183  A    between atoms: _469  and  _471
REMARK  184  A    between atoms: _471  and  _472
REMARK  185  A    between atoms: _475  and  _477
REMARK  186  A    between atoms: _477  and  _478
REMARK  187  A    between atoms: _477  and  _480
REMARK  188  A    between atoms: _480  and  _481
REMARK  189  A    between atoms: _486  and  _488
REMARK  190  A    between atoms: _488  and  _489
REMARK  191  A    between atoms: _488  and  _491
REMARK  192  A    between atoms: _491  and  _492
REMARK  193  A    between atoms: _495  and  _497
REMARK  194  A    between atoms: _497  and  _498
REMARK  195  A    between atoms: _497  and  _500
REMARK  196  A    between atoms: _500  and  _501
REMARK  197  A    between atoms: _503  and  _505
REMARK  198  A    between atoms: _505  and  _506
REMARK  199  A    between atoms: _505  and  _508
REMARK  200  A    between atoms: _508  and  _509
REMARK  201  A    between atoms: _515  and  _517
REMARK  202  A    between atoms: _517  and  _518
REMARK  203  A    between atoms: _517  and  _520
REMARK  204  A    between atoms: _520  and  _521
REMARK  205  A    between atoms: _521  and  _522
REMARK  206  A    between atoms: _525  and  _527
REMARK  207  A    between atoms: _527  and  _528
REMARK  208  A    between atoms: _527  and  _530
REMARK  209  A    between atoms: _533  and  _535
REMARK  210  A    between atoms: _535  and  _536
REMARK  211  A    between atoms: _535  and  _538
REMARK  212  A    between atoms: _538  and  _539
REMARK  213  A    between atoms: _542  and  _544
REMARK  214  A    between atoms: _544  and  _545
REMARK  215  A    between atoms: _544  and  _547
REMARK  216  A    between atoms: _550  and  _552
REMARK  217  A    between atoms: _552  and  _553
REMARK  218  A    between atoms: _556  and  _558
REMARK  219  A    between atoms: _558  and  _559
REMARK  220  A    between atoms: _558  and  _561
REMARK  221  A    between atoms: _561  and  _562
REMARK  222  A    between atoms: _564  and  _566
REMARK  223  A    between atoms: _566  and  _567
REMARK  224  A    between atoms: _566  and  _569
REMARK  225  A    between atoms: _569  and  _570
REMARK  226  A    between atoms: _572  and  _574
REMARK  227  A    between atoms: _574  and  _575
REMARK  228  A    between atoms: _574  and  _577
REMARK  229  A    between atoms: _577  and  _578
REMARK  230  A    between atoms: _581  and  _583
REMARK  231  A    between atoms: _583  and  _584
REMARK  232  A    between atoms: _583  and  _586
REMARK  233  A    between atoms: _586  and  _587
REMARK  234  A    between atoms: _592  and  _593
REMARK  235  A    between atoms: _595  and  _597
REMARK  236  A    between atoms: _597  and  _598
REMARK  237  A    between atoms: _597  and  _600
REMARK  238  A    between atoms: _600  and  _601
REMARK  239  A    between atoms: _607  and  _609
REMARK  240  A    between atoms: _609  and  _610
REMARK  241  A    between atoms: _609  and  _612
REMARK  242  A    between atoms: _612  and  _613
REMARK  243  A    between atoms: _615  and  _617
REMARK  244  A    between atoms: _617  and  _618
REMARK  245  A    between atoms: _617  and  _620
REMARK  246  A    between atoms: _620  and  _621
REMARK  247  A    between atoms: _624  and  _626
REMARK  248  A    between atoms: _626  and  _627
REMARK  249  A    between atoms: _626  and  _629
REMARK  250  A    between atoms: _629  and  _630
REMARK  251  A    between atoms: _635  and  _636
REMARK                            x       y       z     vdW  Elec       q    Type
REMARK                         _______ _______ _______ _____ _____    ______ ____
ROOT
ATOM      1  CB  ASN A   1       2.667  -9.449  -4.876  0.00  0.00    +0.110 C 
ENDROOT
BRANCH   1   2
ATOM      2  CG  ASN A   1       3.659  -8.524  -4.159  0.00  0.00    +0.221 C 
ATOM      3  ND2 ASN A   1       3.583  -8.497  -2.828  0.00  0.00    -0.329 N 
ATOM      4 HD21 ASN A   1       4.237  -7.900  -2.282  0.00  0.00    +0.145 HD
ATOM      5 HD22 ASN A   1       2.870  -9.073  -2.336  0.00  0.00    +0.145 HD
ATOM      6  OD1 ASN A   1       4.484  -7.862  -4.788  0.00  0.00    -0.275 OA
ENDBRANCH   1   2
BRANCH   1   7
ATOM      7  CA  ASN A   1       2.482  -9.101  -6.370  0.00  0.00    +0.142 C 
BRANCH   7   8
ATOM      8  N   ASN A   1       1.842  -7.788  -6.544  0.00  0.00    -0.239 NA
ATOM      9  H   ASN A   1       1.487  -7.289  -5.704  0.00  0.00    +0.142 HD
ENDBRANCH   7   8
BRANCH   7  10
ATOM     10  C   ASN A   1       1.687 -10.209  -7.071  0.00  0.00    +0.225 C 
ATOM     11  O   ASN A   1       2.270 -11.056  -7.752  0.00  0.00    -0.287 OA
ENDBRANCH   7  10
ENDBRANCH   1   7
TORSDOF 4
REMARK  Name = ../refined-set-2016/2ihj/2ihj_pocket.pdb
REMARK  251 active torsions:
REMARK  status: ('A' for Active; 'I' for Inactive)
REMARK    1  A    between atoms: _1  and  _3
REMARK    2  A    between atoms: _3  and  _4
REMARK    3  A    between atoms: _3  and  _6
REMARK    4  A    between atoms: _6  and  _7
REMARK    5  A    between atoms: _11  and  _12
REMARK    6  A    between atoms: _17  and  _19
REMARK    7  A    between atoms: _19  and  _20
REMARK    8  A    between atoms: _23  and  _25
REMARK    9  A    between atoms: _25  and  _26
REMARK   10  A    between atoms: _25  and  _28
REMARK   11  A    between atoms: _28  and  _29
REMARK   12  A    between atoms: _31  and  _33
REMARK   13  A    between atoms: _33  and  _34
REMARK   14  A    between atoms: _33  and  _36
REMARK   15  A    between atoms: _36  and  _37
REMARK   16  A    between atoms: _41  and  _42
REMARK   17  A    between atoms: _47  and  _49
REMARK   18  A    between atoms: _49  and  _50
REMARK   19  A    between atoms: _49  and  _52
REMARK   20  A    between atoms: _52  and  _53
REMARK   21  A    between atoms: _56  and  _58
REMARK   22  A    between atoms: _58  and  _59
REMARK   23  A    between atoms: _58  and  _61
REMARK   24  A    between atoms: _61  and  _62
REMARK   25  A    between atoms: _62  and  _63
REMARK   26  A    between atoms: _63  and  _64
REMARK   27  A    between atoms: _73  and  _75
REMARK   28  A    between atoms: _75  and  _76
REMARK   29  A    between atoms: _75  and  _78
REMARK   30  A    between atoms: _78  and  _79
REMARK   31  A    between atoms: _85  and  _87
REMARK   32  A    between atoms: _87  and  _88
REMARK   33  A    between atoms: _87  and  _90
REMARK   34  A    between atoms: _90  and  _91
REMARK   35  A    between atoms: _96  and  _98
REMARK   36  A    between atoms: _98  and  _99
REMARK   37  A    between atoms: _102  and  _104
REMARK   38  A    between atoms: _104  and  _105
REMARK   39  A    between atoms: _104  and  _107
REMARK   40  A    between atoms: _107  and  _108
REMARK   41  A    between atoms: _113  and  _115
REMARK   42  A    between atoms: _115  and  _116
REMARK   43  A    between atoms: _115  and  _118
REMARK   44  A    between atoms: _118  and  _119
REMARK   45  A    between atoms: _122  and  _124
REMARK   46  A    between atoms: _124  and  _125
REMARK   47  A    between atoms: _124  and  _127
REMARK   48  A    between atoms: _127  and  _128
REMARK   49  A    between atoms: _131  and  _133
REMARK   50  A    between atoms: _133  and  _134
REMARK   51  A    between atoms: _136  and  _138
REMARK   52  A    between atoms: _138  and  _139
REMARK   53  A    between atoms: _138  and  _141
REMARK   54  A    between atoms: _141  and  _142
REMARK   55  A    between atoms: _144  and  _146
REMARK   56  A    between atoms: _146  and  _147
REMARK   57  A    between atoms: _146  and  _149
REMARK   58  A    between atoms: _149  and  _150
REMARK   59  A    between atoms: _150  and  _151
REMARK   60  A    between atoms: _153  and  _155
REMARK   61  A    between atoms: _155  and  _156
REMARK   62  A    between atoms: _155  and  _158
REMARK   63  A    between atoms: _158  and  _159
REMARK   64  A    between atoms: _159  and  _160
REMARK   65  A    between atoms: _163  and  _165
REMARK   66  A    between atoms: _165  and  _166
REMARK   67  A    between atoms: _165  and  _168
REMARK   68  A    between atoms: _168  and  _169
REMARK   69  A    between atoms: _174  and  _175
REMARK   70  A    between atoms: _177  and  _179
REMARK   71  A    between atoms: _179  and  _180
REMARK   72  A    between atoms: _179  and  _182
REMARK   73  A    between atoms: _185  and  _187
REMARK   74  A    between atoms: _187  and  _188
REMARK   75  A    between atoms: _187  and  _190
REMARK   76  A    between atoms: _190  and  _191
REMARK   77  A    between atoms: _194  and  _196
REMARK   78  A    between atoms: _196  and  _197
REMARK   79  A    between atoms: _196  and  _199
REMARK   80  A    between atoms: _199  and  _200
REMARK   81  A    between atoms: _200  and  _201
REMARK   82  A    between atoms: _201  and  _202
REMARK   83  A    between atoms: _202  and  _203
REMARK   84  A    between atoms: _207  and  _209
REMARK   85  A    between atoms: _209  and  _210
REMARK   86  A    between atoms: _209  and  _212
REMARK   87  A    between atoms: _212  and  _213
REMARK   88  A    between atoms: _216  and  _218
REMARK   89  A    between atoms: _218  and  _219
REMARK   90  A    between atoms: _218  and  _221
REMARK   91  A    between atoms: _221  and  _222
REMARK   92  A    between atoms: _222  and  _223
REMARK   93  A    between atoms: _225  and  _227
REMARK   94  A    between atoms: _227  and  _228
REMARK   95  A    between atoms: _227  and  _230
REMARK   96  A    between atoms: _230  and  _231
REMARK   97  A    between atoms: _241  and  _243
REMARK   98  A    between atoms: _243  and  _244
REMARK   99  A    between atoms: _243  and  _246
REMARK  100  A    between atoms: _246  and  _247
REMARK  101  A    between atoms: _250  and  _252
REMARK  102  A    between atoms: _252  and  _253
REMARK  103  A    between atoms: _252  and  _255
REMARK  104  A    between atoms: _255  and  _256
REMARK  105  A    between atoms: _262  and  _264
REMARK  106  A    between atoms: _264  and  _265
REMARK  107  A    between atoms: _264  and  _267
REMARK  108  A    between atoms: _267  and  _268
REMARK  109  A    between atoms: _271  and  _273
REMARK  110  A    between atoms: _273  and  _274
REMARK  111  A    between atoms: _276  and  _278
REMARK  112  A    between atoms: _278  and  _279
REMARK  113  A    between atoms: _278  and  _281
REMARK  114  A    between atoms: _281  and  _282
REMARK  115  A    between atoms: _285  and  _287
REMARK  116  A    between atoms: _287  and  _288
REMARK  117  A    between atoms: _287  and  _290
REMARK  118  A    between atoms: _290  and  _291
REMARK  119  A    between atoms: _294  and  _296
REMARK  120  A    between atoms: _296  and  _297
REMARK  121  A    between atoms: _296  and  _299
REMARK  122  A    between atoms: _299  and  _300
REMARK  123  A    between atoms: _303  and  _305
REMARK  124  A    between atoms: _305  and  _306
REMARK  125  A    between atoms: _305  and  _308
REMARK  126  A    between atoms: _308  and  _309
REMARK  127  A    between atoms: _319  and  _321
REMARK  128  A    between atoms: _321  and  _322
REMARK  129  A    between atoms: _321  and  _324
REMARK  130  A    between atoms: _324  and  _325
REMARK  131  A    between atoms: _325  and  _326
REMARK  132  A    between atoms: _329  and  _331
REMARK  133  A    between atoms: _331  and  _332
REMARK  134  A    between atoms: _331  and  _334
REMARK  135  A    between atoms: _334  and  _335
REMARK  136  A    between atoms: _335  and  _336
REMARK  137  A    between atoms: _336  and  _337
REMARK  138  A    between atoms: _346  and  _348
REMARK  139  A    between atoms: _348  and  _349
REMARK  140  A    between atoms: _348  and  _351
REMARK  141  A    between atoms: _351  and  _352
REMARK  142  A    between atoms: _357  and  _358
REMARK  143  A    between atoms: _360  and  _362
REMARK  144  A    between atoms: _362  and  _363
REMARK  145  A    between atoms: _362  and  _365
REMARK  146  A    between atoms: _365  and  _366
REMARK  147  A    between atoms: _366  and  _367
REMARK  148  A    between atoms: _372  and  _374
REMARK  149  A    between atoms: _374  and  _375
REMARK  150  A    between atoms: _374  and  _377
REMARK  151  A    between atoms: _377  and  _378
REMARK  152  A    between atoms: _384  and  _386
REMARK  153  A    between atoms: _386  and  _387
REMARK  154  A    between atoms: _386  and  _389
REMARK  155  A    between atoms: _389  and  _390
REMARK  156  A    between atoms: _390  and  _391
REMARK  157  A    between atoms: _391  and  _392
REMARK  158  A    between atoms: _392  and  _393
REMARK  159  A    between atoms: _397  and  _399
REMARK  160  A    between atoms: _399  and  _400
REMARK  161  A    between atoms: _402  and  _404
REMARK  162  A    between atoms: _404  and  _405
REMARK  163  A    between atoms: _404  and  _407
REMARK  164  A    between atoms: _407  and  _408
REMARK  165  A    between atoms: _414  and  _415
REMARK  166  A    between atoms: _420  and  _422
REMARK  167  A    between atoms: _422  and  _423
REMARK  168  A    between atoms: _422  and  _425
REMARK  169  A    between atoms: _425  and  _426
REMARK  170  A    between atoms: _426  and  _427
REMARK  171  A    between atoms: _427  and  _428
REMARK  172  A    between atoms: _437  and  _439
REMARK  173  A    between atoms: _439  and  _440
REMARK  174  A    between atoms: _442  and  _444
REMARK  175  A    between atoms: _444  and  _445
REMARK  176  A    between atoms: _444  and  _447
REMARK  177  A    between atoms: _447  and  _448
REMARK  178  A    between atoms: _453  and  _455
REMARK  179  A    between atoms: _455  and  _456
REMARK  180  A    between atoms: _455  and  _458
REMARK  181  A    between atoms: _458  and  _459
REMARK  182  A    between atoms: _463  and  _464
REMARK  183  A    between atoms: _469  and  _471
REMARK  184  A    between atoms: _471  and  _472
REMARK  185  A    between atoms: _475  and  _477
REMARK  186  A    between atoms: _477  and  _478
REMARK  187  A    between atoms: _477  and  _480
REMARK  188  A    between atoms: _480  and  _481
REMARK  189  A    between atoms: _486  and  _488
REMARK  190  A    between atoms: _488  and  _489
REMARK  191  A    between atoms: _488  and  _491
REMARK  192  A    between atoms: _491  and  _492
REMARK  193  A    between atoms: _495  and  _497
REMARK  194  A    between atoms: _497  and  _498
REMARK  195  A    between atoms: _497  and  _500
REMARK  196  A    between atoms: _500  and  _501
REMARK  197  A    between atoms: _503  and  _505
REMARK  198  A    between atoms: _505  and  _506
REMARK  199  A    between atoms: _505  and  _508
REMARK  200  A    between atoms: _508  and  _509
REMARK  201  A    between atoms: _515  and  _517
REMARK  202  A    between atoms: _517  and  _518
REMARK  203  A    between atoms: _517  and  _520
REMARK  204  A    between atoms: _520  and  _521
REMARK  205  A    between atoms: _521  and  _522
REMARK  206  A    between atoms: _525  and  _527
REMARK  207  A    between atoms: _527  and  _528
REMARK  208  A    between atoms: _527  and  _530
REMARK  209  A    between atoms: _533  and  _535
REMARK  210  A    between atoms: _535  and  _536
REMARK  211  A    between atoms: _535  and  _538
REMARK  212  A    between atoms: _538  and  _539
REMARK  213  A    between atoms: _542  and  _544
REMARK  214  A    between atoms: _544  and  _545
REMARK  215  A    between atoms: _544  and  _547
REMARK  216  A    between atoms: _550  and  _552
REMARK  217  A    between atoms: _552  and  _553
REMARK  218  A    between atoms: _556  and  _558
REMARK  219  A    between atoms: _558  and  _559
REMARK  220  A    between atoms: _558  and  _561
REMARK  221  A    between atoms: _561  and  _562
REMARK  222  A    between atoms: _564  and  _566
REMARK  223  A    between atoms: _566  and  _567
REMARK  224  A    between atoms: _566  and  _569
REMARK  225  A    between atoms: _569  and  _570
REMARK  226  A    between atoms: _572  and  _574
REMARK  227  A    between atoms: _574  and  _575
REMARK  228  A    between atoms: _574  and  _577
REMARK  229  A    between atoms: _577  and  _578
REMARK  230  A    between atoms: _581  and  _583
REMARK  231  A    between atoms: _583  and  _584
REMARK  232  A    between atoms: _583  and  _586
REMARK  233  A    between atoms: _586  and  _587
REMARK  234  A    between atoms: _592  and  _593
REMARK  235  A    between atoms: _595  and  _597
REMARK  236  A    between atoms: _597  and  _598
REMARK  237  A    between atoms: _597  and  _600
REMARK  238  A    between atoms: _600  and  _601
REMARK  239  A    between atoms: _607  and  _609
REMARK  240  A    between atoms: _609  and  _610
REMARK  241  A    between atoms: _609  and  _612
REMARK  242  A    between atoms: _612  and  _613
REMARK  243  A    between atoms: _615  and  _617
REMARK  244  A    between atoms: _617  and  _618
REMARK  245  A    between atoms: _617  and  _620
REMARK  246  A    between atoms: _620  and  _621
REMARK  247  A    between atoms: _624  and  _626
REMARK  248  A    between atoms: _626  and  _627
REMARK  249  A    between atoms: _626  and  _629
REMARK  250  A    between atoms: _629  and  _630
REMARK  251  A    between atoms: _635  and  _636
REMARK                            x       y       z     vdW  Elec       q    Type
REMARK                         _______ _______ _______ _____ _____    ______ ____
ROOT
ATOM      1  CA  SER A   6      12.498  -9.173   4.843  0.00  0.00    +0.178 C 
ENDROOT
BRANCH   1   2
ATOM      2  C   SER A   6      13.712  -9.802   4.159  0.00  0.00    +0.243 C 
ATOM      3  O   SER A   6      14.261 -10.791   4.648  0.00  0.00    -0.273 OA
ATOM      4  N   PHE A   7      14.111  -9.224   3.026  0.00  0.00    -0.297 N 
ATOM      5  H   PHE A   7      13.581  -8.400   2.677  0.00  0.00    +0.150 HD
BRANCH   4   6
ATOM      6  CA  PHE A   7      15.263  -9.695   2.248  0.00  0.00    +0.153 C 
BRANCH   6   7
ATOM      7  C   PHE A   7      16.522  -9.943   3.103  0.00  0.00    +0.241 C 
ATOM      8  N   GLU A   8      16.813  -9.016   4.019  0.00  0.00    -0.297 N 
ATOM      9  H   GLU A   8      16.161  -8.214   4.130  0.00  0.00    +0.150 HD
ATOM     10  O   PHE A   7      17.196 -10.969   2.933  0.00  0.00    -0.273 OA
BRANCH   8  11
ATOM     11  CA  GLU A   8      18.008  -9.066   4.883  0.00  0.00    +0.149 C 
BRANCH  11  12
ATOM     12  C   GLU A   8      18.153 -10.342   5.721  0.00  0.00    +0.241 C 
ATOM     13  O   GLU A   8      19.269 -10.702   6.096  0.00  0.00    -0.273 OA
ATOM     14  N   VAL A   9      17.040 -11.019   6.007  0.00  0.00    -0.297 N 
ATOM     15  H   VAL A   9      16.122 -10.630   5.710  0.00  0.00    +0.150 HD
BRANCH  14  16
ATOM     16  CA  VAL A   9      17.073 -12.305   6.734  0.00  0.00    +0.149 C 
BRANCH  16  17
ATOM     17  C   VAL A   9      17.832 -13.384   5.939  0.00  0.00    +0.241 C 
ATOM     18  O   VAL A   9      18.463 -14.267   6.530  0.00  0.00    -0.273 OA
ATOM     19  N   LEU A  10      17.777 -13.297   4.605  0.00  0.00    -0.298 N 
ATOM     20  H   LEU A  10      17.175 -12.567   4.173  0.00  0.00    +0.150 HD
BRANCH  19  21
ATOM     21  CA  LEU A  10      18.539 -14.198   3.731  0.00  0.00    +0.137 C 
BRANCH  21  22
ATOM     22  C   LEU A  10      20.055 -14.049   3.934  0.00  0.00    +0.227 C 
ATOM     23  O   LEU A  10      20.789 -15.040   3.909  0.00  0.00    -0.286 OA
ENDBRANCH  21  22
BRANCH  21  24
ATOM     24  CB  LEU A  10      18.168 -14.000   2.247  0.00  0.00    +0.028 C 
BRANCH  24  25
ATOM     25  CG  LEU A  10      16.739 -14.220   1.720  0.00  0.00    +0.002 C 
ATOM     26  CD2 LEU A  10      16.009 -15.360   2.415  0.00  0.00    +0.000 C 
ATOM     27  CD1 LEU A  10      16.777 -14.474   0.213  0.00  0.00    +0.000 C 
ENDBRANCH  24  25
ENDBRANCH  21  24
ENDBRANCH  19  21
ENDBRANCH  16  17
BRANCH  16  28
ATOM     28  CB  VAL A   9      15.646 -12.792   7.143  0.00  0.00    +0.027 C 
ATOM     29  CG2 VAL A   9      14.975 -11.765   8.058  0.00  0.00    +0.002 C 
ATOM     30  CG1 VAL A   9      15.692 -14.172   7.839  0.00  0.00    +0.002 C 
ENDBRANCH  16  28
ENDBRANCH  14  16
ENDBRANCH  11  12
BRANCH  11  31
ATOM     31  CB  GLU A   8      18.090  -7.836   5.803  0.00  0.00    +0.041 C 
BRANCH  31  32
ATOM     32  CG  GLU A   8      18.263  -6.488   5.076  0.00  0.00    +0.116 C 
BRANCH  32  33
ATOM     33  CD  GLU A   8      16.958  -5.926   4.508  0.00  0.00    +0.365 C 
ATOM     34  OE2 GLU A   8      15.870  -6.471   4.805  0.00  0.00    -0.246 OA
ATOM     35  OE1 GLU A   8      17.021  -4.926   3.763  0.00  0.00    -0.246 OA
ENDBRANCH  32  33
ENDBRANCH  31  32
ENDBRANCH  11  31
ENDBRANCH   8  11
ENDBRANCH   6   7
BRANCH   6  36
ATOM     36  CB  PHE A   7      15.565  -8.728   1.088  0.00  0.00    +0.055 C 
BRANCH  36  37
ATOM     37  CG  PHE A   7      16.630  -9.227   0.139  0.00  0.00    -0.020 A 
ATOM     38  CD2 PHE A   7      17.977  -8.988   0.397  0.00  0.00    -0.004 A 
ATOM     39  CE2 PHE A   7      18.970  -9.462  -0.467  0.00  0.00    -0.000 A 
ATOM     40  CZ  PHE A   7      18.610 -10.182  -1.608  0.00  0.00    -0.000 A 
ATOM     41  CE1 PHE A   7      17.263 -10.419  -1.879  0.00  0.00    -0.000 A 
ATOM     42  CD1 PHE A   7      16.283  -9.946  -1.002  0.00  0.00    -0.004 A 
ENDBRANCH  36  37
ENDBRANCH   6  36
ENDBRANCH   4   6
ENDBRANCH   1   2
BRANCH   1  44
ATOM     43  C   ILE A   5      10.887 -10.944   4.306  0.00  0.00    +0.241 C 
ATOM     44  N   SER A   6      11.503 -10.189   5.220  0.00  0.00    -0.295 N 
ATOM     45  H   SER A   6      11.273 -10.323   6.225  0.00  0.00    +0.150 HD
ATOM     46  O   ILE A   5      11.091 -10.828   3.096  0.00  0.00    -0.273 OA
BRANCH  43  47
ATOM     47  CA  ILE A   5       9.881 -11.981   4.815  0.00  0.00    +0.149 C 
BRANCH  47  50
ATOM     48  C   ASN A   4       7.738 -10.805   5.009  0.00  0.00    +0.241 C 
ATOM     49  O   ASN A   4       8.079 -10.261   6.063  0.00  0.00    -0.273 OA
ATOM     50  N   ILE A   5       8.533 -11.644   4.344  0.00  0.00    -0.297 N 
ATOM     51  H   ILE A   5       8.186 -12.074   3.463  0.00  0.00    +0.150 HD
BRANCH  48  52
ATOM     52  CA  ASN A   4       6.342 -10.541   4.406  0.00  0.00    +0.158 C 
BRANCH  52  54
ATOM     53  C   ALA A   3       6.730 -10.437   1.961  0.00  0.00    +0.241 C 
ATOM     54  N   ASN A   4       6.144 -11.002   3.017  0.00  0.00    -0.297 N 
ATOM     55  H   ASN A   4       5.513 -11.812   2.854  0.00  0.00    +0.150 HD
ATOM     56  O   ALA A   3       7.500  -9.472   2.043  0.00  0.00    -0.273 OA
BRANCH  53  57
ATOM     57  CA  ALA A   3       6.428 -11.061   0.590  0.00  0.00    +0.149 C 
ATOM     58  CB  ALA A   3       5.325 -10.282  -0.143  0.00  0.00    +0.031 C 
BRANCH  57  61
ATOM     59  C   PRO A   2       6.929 -13.424   1.081  0.00  0.00    +0.241 C 
ATOM     60  O   PRO A   2       7.989 -13.179   1.670  0.00  0.00    -0.273 OA
ATOM     61  N   ALA A   3       6.095 -12.490   0.632  0.00  0.00    -0.297 N 
ATOM     62  H   ALA A   3       5.158 -12.788   0.293  0.00  0.00    +0.150 HD
BRANCH  59  65
ATOM     63  C   ILE A   1       8.320 -15.163  -0.849  0.00  0.00    +0.241 C 
ATOM     64  N   PRO A   2       7.565 -15.659   0.163  0.00  0.00    -0.272 N 
ATOM     65  CA  PRO A   2       6.505 -14.872   0.805  0.00  0.00    +0.152 C 
ATOM     66  CB  PRO A   2       6.231 -15.645   2.099  0.00  0.00    +0.031 C 
ATOM     67  CG  PRO A   2       6.500 -17.068   1.728  0.00  0.00    +0.024 C 
ATOM     68  CD  PRO A   2       7.656 -17.017   0.736  0.00  0.00    +0.094 C 
ATOM     69  O   ILE A   1       8.213 -14.002  -1.266  0.00  0.00    -0.273 OA
BRANCH  63  70
ATOM     70  CA  ILE A   1       9.317 -16.111  -1.518  0.00  0.00    +0.145 C 
BRANCH  70  71
ATOM     71  N   ILE A   1       8.861 -16.254  -2.899  0.00  0.00    -0.238 NA
ATOM     72  H   ILE A   1       8.939 -15.438  -3.539  0.00  0.00    +0.142 HD
ENDBRANCH  70  71
BRANCH  70  73
ATOM     73  CB  ILE A   1      10.758 -15.528  -1.423  0.00  0.00    +0.025 C 
ATOM     74  CG2 ILE A   1      11.180 -15.375   0.050  0.00  0.00    +0.002 C 
BRANCH  73  75
ATOM     75  CG1 ILE A   1      11.759 -16.402  -2.198  0.00  0.00    +0.002 C 
ATOM     76  CD1 ILE A   1      13.079 -15.692  -2.558  0.00  0.00    +0.000 C 
ENDBRANCH  73  75
ENDBRANCH  70  73
ENDBRANCH  63  70
ENDBRANCH  59  65
ENDBRANCH  57  61
ENDBRANCH  53  57
ENDBRANCH  52  54
BRANCH  52  77
ATOM     77  CB  ASN A   4       5.252 -11.113   5.337  0.00  0.00    +0.114 C 
BRANCH  77  78
ATOM     78  CG  ASN A   4       5.177 -12.650   5.306  0.00  0.00    +0.222 C 
ATOM     79  OD1 ASN A   4       5.530 -13.325   6.282  0.00  0.00    -0.275 OA
ATOM     80  ND2 ASN A   4       4.702 -13.201   4.188  0.00  0.00    -0.329 N 
ATOM     81 HD21 ASN A   4       4.617 -14.235   4.113  0.00  0.00    +0.145 HD
ATOM     82 HD22 ASN A   4       4.417 -12.597   3.391  0.00  0.00    +0.145 HD
ENDBRANCH  77  78
ENDBRANCH  52  77
ENDBRANCH  48  52
ENDBRANCH  47  50
BRANCH  47  83
ATOM     83  CB  ILE A   5      10.289 -13.424   4.364  0.00  0.00    +0.027 C 
ATOM     84  CG2 ILE A   5      11.726 -13.746   4.791  0.00  0.00    +0.002 C 
BRANCH  83  85
ATOM     85  CG1 ILE A   5       9.286 -14.454   4.913  0.00  0.00    +0.002 C 
ATOM     86  CD1 ILE A   5       9.378 -15.846   4.296  0.00  0.00    +0.000 C 
ENDBRANCH  83  85
ENDBRANCH  47  83
ENDBRANCH  43  47
ENDBRANCH   1  44
BRANCH   1  87
ATOM     87  CB  SER A   6      12.959  -8.356   6.055  0.00  0.00    +0.166 C 
BRANCH  87  88
ATOM     88  OG  SER A   6      12.053  -7.315   6.374  0.00  0.00    -0.380 OA
ATOM     89  H   SER A   6      11.167  -7.703   6.583  0.00  0.00    +0.211 HD
ENDBRANCH  87  88
ENDBRANCH   1  87
TORSDOF 35
REMARK  Name = ../refined-set-2016/2ihj/2ihj_pocket.pdb
REMARK  251 active torsions:
REMARK  status: ('A' for Active; 'I' for Inactive)
REMARK    1  A    between atoms: _1  and  _3
REMARK    2  A    between atoms: _3  and  _4
REMARK    3  A    between atoms: _3  and  _6
REMARK    4  A    between atoms: _6  and  _7
REMARK    5  A    between atoms: _11  and  _12
REMARK    6  A    between atoms: _17  and  _19
REMARK    7  A    between atoms: _19  and  _20
REMARK    8  A    between atoms: _23  and  _25
REMARK    9  A    between atoms: _25  and  _26
REMARK   10  A    between atoms: _25  and  _28
REMARK   11  A    between atoms: _28  and  _29
REMARK   12  A    between atoms: _31  and  _33
REMARK   13  A    between atoms: _33  and  _34
REMARK   14  A    between atoms: _33  and  _36
REMARK   15  A    between atoms: _36  and  _37
REMARK   16  A    between atoms: _41  and  _42
REMARK   17  A    between atoms: _47  and  _49
REMARK   18  A    between atoms: _49  and  _50
REMARK   19  A    between atoms: _49  and  _52
REMARK   20  A    between atoms: _52  and  _53
REMARK   21  A    between atoms: _56  and  _58
REMARK   22  A    between atoms: _58  and  _59
REMARK   23  A    between atoms: _58  and  _61
REMARK   24  A    between atoms: _61  and  _62
REMARK   25  A    between atoms: _62  and  _63
REMARK   26  A    between atoms: _63  and  _64
REMARK   27  A    between atoms: _73  and  _75
REMARK   28  A    between atoms: _75  and  _76
REMARK   29  A    between atoms: _75  and  _78
REMARK   30  A    between atoms: _78  and  _79
REMARK   31  A    between atoms: _85  and  _87
REMARK   32  A    between atoms: _87  and  _88
REMARK   33  A    between atoms: _87  and  _90
REMARK   34  A    between atoms: _90  and  _91
REMARK   35  A    between atoms: _96  and  _98
REMARK   36  A    between atoms: _98  and  _99
REMARK   37  A    between atoms: _102  and  _104
REMARK   38  A    between atoms: _104  and  _105
REMARK   39  A    between atoms: _104  and  _107
REMARK   40  A    between atoms: _107  and  _108
REMARK   41  A    between atoms: _113  and  _115
REMARK   42  A    between atoms: _115  and  _116
REMARK   43  A    between atoms: _115  and  _118
REMARK   44  A    between atoms: _118  and  _119
REMARK   45  A    between atoms: _122  and  _124
REMARK   46  A    between atoms: _124  and  _125
REMARK   47  A    between atoms: _124  and  _127
REMARK   48  A    between atoms: _127  and  _128
REMARK   49  A    between atoms: _131  and  _133
REMARK   50  A    between atoms: _133  and  _134
REMARK   51  A    between atoms: _136  and  _138
REMARK   52  A    between atoms: _138  and  _139
REMARK   53  A    between atoms: _138  and  _141
REMARK   54  A    between atoms: _141  and  _142
REMARK   55  A    between atoms: _144  and  _146
REMARK   56  A    between atoms: _146  and  _147
REMARK   57  A    between atoms: _146  and  _149
REMARK   58  A    between atoms: _149  and  _150
REMARK   59  A    between atoms: _150  and  _151
REMARK   60  A    between atoms: _153  and  _155
REMARK   61  A    between atoms: _155  and  _156
REMARK   62  A    between atoms: _155  and  _158
REMARK   63  A    between atoms: _158  and  _159
REMARK   64  A    between atoms: _159  and  _160
REMARK   65  A    between atoms: _163  and  _165
REMARK   66  A    between atoms: _165  and  _166
REMARK   67  A    between atoms: _165  and  _168
REMARK   68  A    between atoms: _168  and  _169
REMARK   69  A    between atoms: _174  and  _175
REMARK   70  A    between atoms: _177  and  _179
REMARK   71  A    between atoms: _179  and  _180
REMARK   72  A    between atoms: _179  and  _182
REMARK   73  A    between atoms: _185  and  _187
REMARK   74  A    between atoms: _187  and  _188
REMARK   75  A    between atoms: _187  and  _190
REMARK   76  A    between atoms: _190  and  _191
REMARK   77  A    between atoms: _194  and  _196
REMARK   78  A    between atoms: _196  and  _197
REMARK   79  A    between atoms: _196  and  _199
REMARK   80  A    between atoms: _199  and  _200
REMARK   81  A    between atoms: _200  and  _201
REMARK   82  A    between atoms: _201  and  _202
REMARK   83  A    between atoms: _202  and  _203
REMARK   84  A    between atoms: _207  and  _209
REMARK   85  A    between atoms: _209  and  _210
REMARK   86  A    between atoms: _209  and  _212
REMARK   87  A    between atoms: _212  and  _213
REMARK   88  A    between atoms: _216  and  _218
REMARK   89  A    between atoms: _218  and  _219
REMARK   90  A    between atoms: _218  and  _221
REMARK   91  A    between atoms: _221  and  _222
REMARK   92  A    between atoms: _222  and  _223
REMARK   93  A    between atoms: _225  and  _227
REMARK   94  A    between atoms: _227  and  _228
REMARK   95  A    between atoms: _227  and  _230
REMARK   96  A    between atoms: _230  and  _231
REMARK   97  A    between atoms: _241  and  _243
REMARK   98  A    between atoms: _243  and  _244
REMARK   99  A    between atoms: _243  and  _246
REMARK  100  A    between atoms: _246  and  _247
REMARK  101  A    between atoms: _250  and  _252
REMARK  102  A    between atoms: _252  and  _253
REMARK  103  A    between atoms: _252  and  _255
REMARK  104  A    between atoms: _255  and  _256
REMARK  105  A    between atoms: _262  and  _264
REMARK  106  A    between atoms: _264  and  _265
REMARK  107  A    between atoms: _264  and  _267
REMARK  108  A    between atoms: _267  and  _268
REMARK  109  A    between atoms: _271  and  _273
REMARK  110  A    between atoms: _273  and  _274
REMARK  111  A    between atoms: _276  and  _278
REMARK  112  A    between atoms: _278  and  _279
REMARK  113  A    between atoms: _278  and  _281
REMARK  114  A    between atoms: _281  and  _282
REMARK  115  A    between atoms: _285  and  _287
REMARK  116  A    between atoms: _287  and  _288
REMARK  117  A    between atoms: _287  and  _290
REMARK  118  A    between atoms: _290  and  _291
REMARK  119  A    between atoms: _294  and  _296
REMARK  120  A    between atoms: _296  and  _297
REMARK  121  A    between atoms: _296  and  _299
REMARK  122  A    between atoms: _299  and  _300
REMARK  123  A    between atoms: _303  and  _305
REMARK  124  A    between atoms: _305  and  _306
REMARK  125  A    between atoms: _305  and  _308
REMARK  126  A    between atoms: _308  and  _309
REMARK  127  A    between atoms: _319  and  _321
REMARK  128  A    between atoms: _321  and  _322
REMARK  129  A    between atoms: _321  and  _324
REMARK  130  A    between atoms: _324  and  _325
REMARK  131  A    between atoms: _325  and  _326
REMARK  132  A    between atoms: _329  and  _331
REMARK  133  A    between atoms: _331  and  _332
REMARK  134  A    between atoms: _331  and  _334
REMARK  135  A    between atoms: _334  and  _335
REMARK  136  A    between atoms: _335  and  _336
REMARK  137  A    between atoms: _336  and  _337
REMARK  138  A    between atoms: _346  and  _348
REMARK  139  A    between atoms: _348  and  _349
REMARK  140  A    between atoms: _348  and  _351
REMARK  141  A    between atoms: _351  and  _352
REMARK  142  A    between atoms: _357  and  _358
REMARK  143  A    between atoms: _360  and  _362
REMARK  144  A    between atoms: _362  and  _363
REMARK  145  A    between atoms: _362  and  _365
REMARK  146  A    between atoms: _365  and  _366
REMARK  147  A    between atoms: _366  and  _367
REMARK  148  A    between atoms: _372  and  _374
REMARK  149  A    between atoms: _374  and  _375
REMARK  150  A    between atoms: _374  and  _377
REMARK  151  A    between atoms: _377  and  _378
REMARK  152  A    between atoms: _384  and  _386
REMARK  153  A    between atoms: _386  and  _387
REMARK  154  A    between atoms: _386  and  _389
REMARK  155  A    between atoms: _389  and  _390
REMARK  156  A    between atoms: _390  and  _391
REMARK  157  A    between atoms: _391  and  _392
REMARK  158  A    between atoms: _392  and  _393
REMARK  159  A    between atoms: _397  and  _399
REMARK  160  A    between atoms: _399  and  _400
REMARK  161  A    between atoms: _402  and  _404
REMARK  162  A    between atoms: _404  and  _405
REMARK  163  A    between atoms: _404  and  _407
REMARK  164  A    between atoms: _407  and  _408
REMARK  165  A    between atoms: _414  and  _415
REMARK  166  A    between atoms: _420  and  _422
REMARK  167  A    between atoms: _422  and  _423
REMARK  168  A    between atoms: _422  and  _425
REMARK  169  A    between atoms: _425  and  _426
REMARK  170  A    between atoms: _426  and  _427
REMARK  171  A    between atoms: _427  and  _428
REMARK  172  A    between atoms: _437  and  _439
REMARK  173  A    between atoms: _439  and  _440
REMARK  174  A    between atoms: _442  and  _444
REMARK  175  A    between atoms: _444  and  _445
REMARK  176  A    between atoms: _444  and  _447
REMARK  177  A    between atoms: _447  and  _448
REMARK  178  A    between atoms: _453  and  _455
REMARK  179  A    between atoms: _455  and  _456
REMARK  180  A    between atoms: _455  and  _458
REMARK  181  A    between atoms: _458  and  _459
REMARK  182  A    between atoms: _463  and  _464
REMARK  183  A    between atoms: _469  and  _471
REMARK  184  A    between atoms: _471  and  _472
REMARK  185  A    between atoms: _475  and  _477
REMARK  186  A    between atoms: _477  and  _478
REMARK  187  A    between atoms: _477  and  _480
REMARK  188  A    between atoms: _480  and  _481
REMARK  189  A    between atoms: _486  and  _488
REMARK  190  A    between atoms: _488  and  _489
REMARK  191  A    between atoms: _488  and  _491
REMARK  192  A    between atoms: _491  and  _492
REMARK  193  A    between atoms: _495  and  _497
REMARK  194  A    between atoms: _497  and  _498
REMARK  195  A    between atoms: _497  and  _500
REMARK  196  A    between atoms: _500  and  _501
REMARK  197  A    between atoms: _503  and  _505
REMARK  198  A    between atoms: _505  and  _506
REMARK  199  A    between atoms: _505  and  _508
REMARK  200  A    between atoms: _508  and  _509
REMARK  201  A    between atoms: _515  and  _517
REMARK  202  A    between atoms: _517  and  _518
REMARK  203  A    between atoms: _517  and  _520
REMARK  204  A    between atoms: _520  and  _521
REMARK  205  A    between atoms: _521  and  _522
REMARK  206  A    between atoms: _525  and  _527
REMARK  207  A    between atoms: _527  and  _528
REMARK  208  A    between atoms: _527  and  _530
REMARK  209  A    between atoms: _533  and  _535
REMARK  210  A    between atoms: _535  and  _536
REMARK  211  A    between atoms: _535  and  _538
REMARK  212  A    between atoms: _538  and  _539
REMARK  213  A    between atoms: _542  and  _544
REMARK  214  A    between atoms: _544  and  _545
REMARK  215  A    between atoms: _544  and  _547
REMARK  216  A    between atoms: _550  and  _552
REMARK  217  A    between atoms: _552  and  _553
REMARK  218  A    between atoms: _556  and  _558
REMARK  219  A    between atoms: _558  and  _559
REMARK  220  A    between atoms: _558  and  _561
REMARK  221  A    between atoms: _561  and  _562
REMARK  222  A    between atoms: _564  and  _566
REMARK  223  A    between atoms: _566  and  _567
REMARK  224  A    between atoms: _566  and  _569
REMARK  225  A    between atoms: _569  and  _570
REMARK  226  A    between atoms: _572  and  _574
REMARK  227  A    between atoms: _574  and  _575
REMARK  228  A    between atoms: _574  and  _577
REMARK  229  A    between atoms: _577  and  _578
REMARK  230  A    between atoms: _581  and  _583
REMARK  231  A    between atoms: _583  and  _584
REMARK  232  A    between atoms: _583  and  _586
REMARK  233  A    between atoms: _586  and  _587
REMARK  234  A    between atoms: _592  and  _593
REMARK  235  A    between atoms: _595  and  _597
REMARK  236  A    between atoms: _597  and  _598
REMARK  237  A    between atoms: _597  and  _600
REMARK  238  A    between atoms: _600  and  _601
REMARK  239  A    between atoms: _607  and  _609
REMARK  240  A    between atoms: _609  and  _610
REMARK  241  A    between atoms: _609  and  _612
REMARK  242  A    between atoms: _612  and  _613
REMARK  243  A    between atoms: _615  and  _617
REMARK  244  A    between atoms: _617  and  _618
REMARK  245  A    between atoms: _617  and  _620
REMARK  246  A    between atoms: _620  and  _621
REMARK  247  A    between atoms: _624  and  _626
REMARK  248  A    between atoms: _626  and  _627
REMARK  249  A    between atoms: _626  and  _629
REMARK  250  A    between atoms: _629  and  _630
REMARK  251  A    between atoms: _635  and  _636
REMARK                            x       y       z     vdW  Elec       q    Type
REMARK                         _______ _______ _______ _____ _____    ______ ____
ROOT
ATOM      1  CA  LEU A   5      17.522  -3.954   0.284  0.00  0.00    +0.149 C 
ENDROOT
BRANCH   1   2
ATOM      2  C   LEU A   5      18.909  -3.901  -0.392  0.00  0.00    +0.241 C 
ATOM      3  O   LEU A   5      19.852  -4.555   0.068  0.00  0.00    -0.273 OA
ATOM      4  N   TYR A   6      19.029  -3.089  -1.448  0.00  0.00    -0.297 N 
ATOM      5  H   TYR A   6      18.205  -2.525  -1.738  0.00  0.00    +0.150 HD
BRANCH   4   6
ATOM      6  CA  TYR A   6      20.275  -2.960  -2.215  0.00  0.00    +0.153 C 
BRANCH   6   7
ATOM      7  C   TYR A   6      21.417  -2.248  -1.459  0.00  0.00    +0.241 C 
ATOM      8  N   PHE A   7      21.088  -1.570  -0.355  0.00  0.00    -0.297 N 
ATOM      9  H   PHE A   7      20.090  -1.561  -0.063  0.00  0.00    +0.150 HD
ATOM     10  O   TYR A   6      22.579  -2.355  -1.861  0.00  0.00    -0.273 OA
BRANCH   8  11
ATOM     11  CA  PHE A   7      22.062  -0.835   0.471  0.00  0.00    +0.153 C 
BRANCH  11  12
ATOM     12  C   PHE A   7      23.011  -1.744   1.274  0.00  0.00    +0.241 C 
ATOM     13  O   PHE A   7      24.105  -1.317   1.663  0.00  0.00    -0.273 OA
ATOM     14  N   SER A   8      22.583  -2.977   1.551  0.00  0.00    -0.296 N 
ATOM     15  H   SER A   8      21.656  -3.289   1.198  0.00  0.00    +0.150 HD
BRANCH  14  16
ATOM     16  CA  SER A   8      23.398  -3.896   2.344  0.00  0.00    +0.166 C 
BRANCH  16  17
ATOM     17  CB  SER A   8      23.766  -5.178   1.588  0.00  0.00    +0.229 C 
ATOM     18  OG  SER A   8      24.255  -6.135   2.185  0.00  0.00    -0.286 OA
ENDBRANCH  16  17
BRANCH  16  19
ATOM     19  C   SER A   8      22.716  -4.215   3.683  0.00  0.00    +0.165 C 
BRANCH  19  20
ATOM     20  O   SER A   8      21.523  -4.952   3.480  0.00  0.00    -0.380 OA
ATOM     21  H   SER A   8      20.900  -4.422   2.923  0.00  0.00    +0.211 HD
ENDBRANCH  19  20
ENDBRANCH  16  19
ENDBRANCH  14  16
ENDBRANCH  11  12
BRANCH  11  22
ATOM     22  CB  PHE A   7      21.345   0.103   1.454  0.00  0.00    +0.055 C 
BRANCH  22  23
ATOM     23  CG  PHE A   7      20.825   1.384   0.836  0.00  0.00    -0.020 A 
ATOM     24  CD2 PHE A   7      21.358   2.615   1.214  0.00  0.00    -0.004 A 
ATOM     25  CE2 PHE A   7      20.874   3.808   0.662  0.00  0.00    -0.000 A 
ATOM     26  CZ  PHE A   7      19.838   3.773  -0.271  0.00  0.00    -0.000 A 
ATOM     27  CE1 PHE A   7      19.289   2.555  -0.650  0.00  0.00    -0.000 A 
ATOM     28  CD1 PHE A   7      19.780   1.365  -0.092  0.00  0.00    -0.004 A 
ENDBRANCH  22  23
ENDBRANCH  11  22
ENDBRANCH   8  11
ENDBRANCH   6   7
BRANCH   6  29
ATOM     29  CB  TYR A   6      20.015  -2.339  -3.613  0.00  0.00    +0.055 C 
BRANCH  29  30
ATOM     30  CG  TYR A   6      19.227  -3.259  -4.539  0.00  0.00    -0.020 A 
ATOM     31  CD2 TYR A   6      17.836  -3.142  -4.664  0.00  0.00    -0.001 A 
ATOM     32  CE2 TYR A   6      17.103  -4.010  -5.507  0.00  0.00    +0.036 A 
ATOM     33  CZ  TYR A   6      17.775  -4.996  -6.226  0.00  0.00    +0.134 A 
ATOM     34  CE1 TYR A   6      19.154  -5.128  -6.115  0.00  0.00    +0.036 A 
ATOM     35  CD1 TYR A   6      19.871  -4.263  -5.272  0.00  0.00    -0.001 A 
BRANCH  33  36
ATOM     36  OH  TYR A   6      17.078  -5.857  -7.051  0.00  0.00    -0.506 OA
ATOM     37  HH  TYR A   6      16.418  -6.364  -6.515  0.00  0.00    +0.292 HD
ENDBRANCH  33  36
ENDBRANCH  29  30
ENDBRANCH   6  29
ENDBRANCH   4   6
ENDBRANCH   1   2
BRANCH   1  40
ATOM     38  C   SER A   4      17.255  -1.564   0.714  0.00  0.00    +0.243 C 
ATOM     39  O   SER A   4      18.316  -1.512   1.341  0.00  0.00    -0.273 OA
ATOM     40  N   LEU A   5      16.796  -2.689   0.168  0.00  0.00    -0.297 N 
ATOM     41  H   LEU A   5      15.897  -2.668  -0.355  0.00  0.00    +0.150 HD
BRANCH  38  42
ATOM     42  CA  SER A   4      16.394  -0.304   0.524  0.00  0.00    +0.178 C 
BRANCH  42  44
ATOM     43  C   SER A   3      15.968  -0.525  -1.902  0.00  0.00    +0.243 C 
ATOM     44  N   SER A   4      15.512  -0.394  -0.651  0.00  0.00    -0.295 N 
ATOM     45  H   SER A   4      14.484  -0.354  -0.501  0.00  0.00    +0.150 HD
ATOM     46  O   SER A   3      17.172  -0.525  -2.189  0.00  0.00    -0.273 OA
BRANCH  43  47
ATOM     47  CA  SER A   3      14.904  -0.690  -3.007  0.00  0.00    +0.178 C 
BRANCH  47  49
ATOM     48  C   ALA A   2      14.750   0.190  -5.320  0.00  0.00    +0.241 C 
ATOM     49  N   SER A   3      15.455  -0.387  -4.340  0.00  0.00    -0.295 N 
ATOM     50  H   SER A   3      16.447  -0.635  -4.529  0.00  0.00    +0.150 HD
ATOM     51  O   ALA A   2      13.569   0.547  -5.195  0.00  0.00    -0.273 OA
BRANCH  48  52
ATOM     52  CA  ALA A   2      15.477   0.363  -6.666  0.00  0.00    +0.149 C 
ATOM     53  CB  ALA A   2      15.780   1.848  -6.943  0.00  0.00    +0.031 C 
BRANCH  52  56
ATOM     54  C   VAL A   1      14.127  -1.416  -7.731  0.00  0.00    +0.238 C 
ATOM     55  O   VAL A   1      14.172  -2.139  -6.733  0.00  0.00    -0.274 OA
ATOM     56  N   ALA A   2      14.742  -0.232  -7.802  0.00  0.00    -0.297 N 
ATOM     57  H   ALA A   2      14.702   0.295  -8.698  0.00  0.00    +0.150 HD
BRANCH  54  58
ATOM     58  CA  VAL A   1      13.337  -1.854  -8.981  0.00  0.00    +0.145 C 
BRANCH  58  59
ATOM     59  CB  VAL A   1      11.827  -1.451  -8.860  0.00  0.00    +0.025 C 
ATOM     60  CG2 VAL A   1      11.673   0.017  -8.467  0.00  0.00    +0.002 C 
ATOM     61  CG1 VAL A   1      11.086  -1.715 -10.184  0.00  0.00    +0.002 C 
ENDBRANCH  58  59
BRANCH  58  62
ATOM     62  N   VAL A   1      13.488  -3.289  -9.255  0.00  0.00    -0.238 NA
ATOM     63  H   VAL A   1      12.714  -3.933  -8.996  0.00  0.00    +0.142 HD
ENDBRANCH  58  62
ENDBRANCH  54  58
ENDBRANCH  52  56
ENDBRANCH  48  52
ENDBRANCH  47  49
BRANCH  47  64
ATOM     64  CB  SER A   3      14.343  -2.123  -2.983  0.00  0.00    +0.166 C 
BRANCH  64  65
ATOM     65  OG  SER A   3      14.015  -2.536  -1.664  0.00  0.00    -0.380 OA
ATOM     66  H   SER A   3      13.658  -3.459  -1.688  0.00  0.00    +0.211 HD
ENDBRANCH  64  65
ENDBRANCH  47  64
ENDBRANCH  43  47
ENDBRANCH  42  44
BRANCH  42  67
ATOM     67  CB  SER A   4      15.583  -0.052   1.807  0.00  0.00    +0.166 C 
BRANCH  67  68
ATOM     68  OG  SER A   4      14.941   1.217   1.799  0.00  0.00    -0.380 OA
ATOM     69  H   SER A   4      14.321   1.267   1.029  0.00  0.00    +0.211 HD
ENDBRANCH  67  68
ENDBRANCH  42  67
ENDBRANCH  38  42
ENDBRANCH   1  40
BRANCH   1  70
ATOM     70  CB  LEU A   5      16.661  -5.124  -0.236  0.00  0.00    +0.029 C 
BRANCH  70  71
ATOM     71  CG  LEU A   5      16.386  -5.284  -1.740  0.00  0.00    +0.002 C 
ATOM     72  CD2 LEU A   5      15.046  -6.000  -1.964  0.00  0.00    +0.000 C 
ATOM     73  CD1 LEU A   5      17.513  -6.059  -2.448  0.00  0.00    +0.000 C 
ENDBRANCH  70  71
ENDBRANCH   1  70
TORSDOF 30
REMARK  Name = ../refined-set-2016/2ihj/2ihj_pocket.pdb
REMARK  251 active torsions:
REMARK  status: ('A' for Active; 'I' for Inactive)
REMARK    1  A    between atoms: _1  and  _3
REMARK    2  A    between atoms: _3  and  _4
REMARK    3  A    between atoms: _3  and  _6
REMARK    4  A    between atoms: _6  and  _7
REMARK    5  A    between atoms: _11  and  _12
REMARK    6  A    between atoms: _17  and  _19
REMARK    7  A    between atoms: _19  and  _20
REMARK    8  A    between atoms: _23  and  _25
REMARK    9  A    between atoms: _25  and  _26
REMARK   10  A    between atoms: _25  and  _28
REMARK   11  A    between atoms: _28  and  _29
REMARK   12  A    between atoms: _31  and  _33
REMARK   13  A    between atoms: _33  and  _34
REMARK   14  A    between atoms: _33  and  _36
REMARK   15  A    between atoms: _36  and  _37
REMARK   16  A    between atoms: _41  and  _42
REMARK   17  A    between atoms: _47  and  _49
REMARK   18  A    between atoms: _49  and  _50
REMARK   19  A    between atoms: _49  and  _52
REMARK   20  A    between atoms: _52  and  _53
REMARK   21  A    between atoms: _56  and  _58
REMARK   22  A    between atoms: _58  and  _59
REMARK   23  A    between atoms: _58  and  _61
REMARK   24  A    between atoms: _61  and  _62
REMARK   25  A    between atoms: _62  and  _63
REMARK   26  A    between atoms: _63  and  _64
REMARK   27  A    between atoms: _73  and  _75
REMARK   28  A    between atoms: _75  and  _76
REMARK   29  A    between atoms: _75  and  _78
REMARK   30  A    between atoms: _78  and  _79
REMARK   31  A    between atoms: _85  and  _87
REMARK   32  A    between atoms: _87  and  _88
REMARK   33  A    between atoms: _87  and  _90
REMARK   34  A    between atoms: _90  and  _91
REMARK   35  A    between atoms: _96  and  _98
REMARK   36  A    between atoms: _98  and  _99
REMARK   37  A    between atoms: _102  and  _104
REMARK   38  A    between atoms: _104  and  _105
REMARK   39  A    between atoms: _104  and  _107
REMARK   40  A    between atoms: _107  and  _108
REMARK   41  A    between atoms: _113  and  _115
REMARK   42  A    between atoms: _115  and  _116
REMARK   43  A    between atoms: _115  and  _118
REMARK   44  A    between atoms: _118  and  _119
REMARK   45  A    between atoms: _122  and  _124
REMARK   46  A    between atoms: _124  and  _125
REMARK   47  A    between atoms: _124  and  _127
REMARK   48  A    between atoms: _127  and  _128
REMARK   49  A    between atoms: _131  and  _133
REMARK   50  A    between atoms: _133  and  _134
REMARK   51  A    between atoms: _136  and  _138
REMARK   52  A    between atoms: _138  and  _139
REMARK   53  A    between atoms: _138  and  _141
REMARK   54  A    between atoms: _141  and  _142
REMARK   55  A    between atoms: _144  and  _146
REMARK   56  A    between atoms: _146  and  _147
REMARK   57  A    between atoms: _146  and  _149
REMARK   58  A    between atoms: _149  and  _150
REMARK   59  A    between atoms: _150  and  _151
REMARK   60  A    between atoms: _153  and  _155
REMARK   61  A    between atoms: _155  and  _156
REMARK   62  A    between atoms: _155  and  _158
REMARK   63  A    between atoms: _158  and  _159
REMARK   64  A    between atoms: _159  and  _160
REMARK   65  A    between atoms: _163  and  _165
REMARK   66  A    between atoms: _165  and  _166
REMARK   67  A    between atoms: _165  and  _168
REMARK   68  A    between atoms: _168  and  _169
REMARK   69  A    between atoms: _174  and  _175
REMARK   70  A    between atoms: _177  and  _179
REMARK   71  A    between atoms: _179  and  _180
REMARK   72  A    between atoms: _179  and  _182
REMARK   73  A    between atoms: _185  and  _187
REMARK   74  A    between atoms: _187  and  _188
REMARK   75  A    between atoms: _187  and  _190
REMARK   76  A    between atoms: _190  and  _191
REMARK   77  A    between atoms: _194  and  _196
REMARK   78  A    between atoms: _196  and  _197
REMARK   79  A    between atoms: _196  and  _199
REMARK   80  A    between atoms: _199  and  _200
REMARK   81  A    between atoms: _200  and  _201
REMARK   82  A    between atoms: _201  and  _202
REMARK   83  A    between atoms: _202  and  _203
REMARK   84  A    between atoms: _207  and  _209
REMARK   85  A    between atoms: _209  and  _210
REMARK   86  A    between atoms: _209  and  _212
REMARK   87  A    between atoms: _212  and  _213
REMARK   88  A    between atoms: _216  and  _218
REMARK   89  A    between atoms: _218  and  _219
REMARK   90  A    between atoms: _218  and  _221
REMARK   91  A    between atoms: _221  and  _222
REMARK   92  A    between atoms: _222  and  _223
REMARK   93  A    between atoms: _225  and  _227
REMARK   94  A    between atoms: _227  and  _228
REMARK   95  A    between atoms: _227  and  _230
REMARK   96  A    between atoms: _230  and  _231
REMARK   97  A    between atoms: _241  and  _243
REMARK   98  A    between atoms: _243  and  _244
REMARK   99  A    between atoms: _243  and  _246
REMARK  100  A    between atoms: _246  and  _247
REMARK  101  A    between atoms: _250  and  _252
REMARK  102  A    between atoms: _252  and  _253
REMARK  103  A    between atoms: _252  and  _255
REMARK  104  A    between atoms: _255  and  _256
REMARK  105  A    between atoms: _262  and  _264
REMARK  106  A    between atoms: _264  and  _265
REMARK  107  A    between atoms: _264  and  _267
REMARK  108  A    between atoms: _267  and  _268
REMARK  109  A    between atoms: _271  and  _273
REMARK  110  A    between atoms: _273  and  _274
REMARK  111  A    between atoms: _276  and  _278
REMARK  112  A    between atoms: _278  and  _279
REMARK  113  A    between atoms: _278  and  _281
REMARK  114  A    between atoms: _281  and  _282
REMARK  115  A    between atoms: _285  and  _287
REMARK  116  A    between atoms: _287  and  _288
REMARK  117  A    between atoms: _287  and  _290
REMARK  118  A    between atoms: _290  and  _291
REMARK  119  A    between atoms: _294  and  _296
REMARK  120  A    between atoms: _296  and  _297
REMARK  121  A    between atoms: _296  and  _299
REMARK  122  A    between atoms: _299  and  _300
REMARK  123  A    between atoms: _303  and  _305
REMARK  124  A    between atoms: _305  and  _306
REMARK  125  A    between atoms: _305  and  _308
REMARK  126  A    between atoms: _308  and  _309
REMARK  127  A    between atoms: _319  and  _321
REMARK  128  A    between atoms: _321  and  _322
REMARK  129  A    between atoms: _321  and  _324
REMARK  130  A    between atoms: _324  and  _325
REMARK  131  A    between atoms: _325  and  _326
REMARK  132  A    between atoms: _329  and  _331
REMARK  133  A    between atoms: _331  and  _332
REMARK  134  A    between atoms: _331  and  _334
REMARK  135  A    between atoms: _334  and  _335
REMARK  136  A    between atoms: _335  and  _336
REMARK  137  A    between atoms: _336  and  _337
REMARK  138  A    between atoms: _346  and  _348
REMARK  139  A    between atoms: _348  and  _349
REMARK  140  A    between atoms: _348  and  _351
REMARK  141  A    between atoms: _351  and  _352
REMARK  142  A    between atoms: _357  and  _358
REMARK  143  A    between atoms: _360  and  _362
REMARK  144  A    between atoms: _362  and  _363
REMARK  145  A    between atoms: _362  and  _365
REMARK  146  A    between atoms: _365  and  _366
REMARK  147  A    between atoms: _366  and  _367
REMARK  148  A    between atoms: _372  and  _374
REMARK  149  A    between atoms: _374  and  _375
REMARK  150  A    between atoms: _374  and  _377
REMARK  151  A    between atoms: _377  and  _378
REMARK  152  A    between atoms: _384  and  _386
REMARK  153  A    between atoms: _386  and  _387
REMARK  154  A    between atoms: _386  and  _389
REMARK  155  A    between atoms: _389  and  _390
REMARK  156  A    between atoms: _390  and  _391
REMARK  157  A    between atoms: _391  and  _392
REMARK  158  A    between atoms: _392  and  _393
REMARK  159  A    between atoms: _397  and  _399
REMARK  160  A    between atoms: _399  and  _400
REMARK  161  A    between atoms: _402  and  _404
REMARK  162  A    between atoms: _404  and  _405
REMARK  163  A    between atoms: _404  and  _407
REMARK  164  A    between atoms: _407  and  _408
REMARK  165  A    between atoms: _414  and  _415
REMARK  166  A    between atoms: _420  and  _422
REMARK  167  A    between atoms: _422  and  _423
REMARK  168  A    between atoms: _422  and  _425
REMARK  169  A    between atoms: _425  and  _426
REMARK  170  A    between atoms: _426  and  _427
REMARK  171  A    between atoms: _427  and  _428
REMARK  172  A    between atoms: _437  and  _439
REMARK  173  A    between atoms: _439  and  _440
REMARK  174  A    between atoms: _442  and  _444
REMARK  175  A    between atoms: _444  and  _445
REMARK  176  A    between atoms: _444  and  _447
REMARK  177  A    between atoms: _447  and  _448
REMARK  178  A    between atoms: _453  and  _455
REMARK  179  A    between atoms: _455  and  _456
REMARK  180  A    between atoms: _455  and  _458
REMARK  181  A    between atoms: _458  and  _459
REMARK  182  A    between atoms: _463  and  _464
REMARK  183  A    between atoms: _469  and  _471
REMARK  184  A    between atoms: _471  and  _472
REMARK  185  A    between atoms: _475  and  _477
REMARK  186  A    between atoms: _477  and  _478
REMARK  187  A    between atoms: _477  and  _480
REMARK  188  A    between atoms: _480  and  _481
REMARK  189  A    between atoms: _486  and  _488
REMARK  190  A    between atoms: _488  and  _489
REMARK  191  A    between atoms: _488  and  _491
REMARK  192  A    between atoms: _491  and  _492
REMARK  193  A    between atoms: _495  and  _497
REMARK  194  A    between atoms: _497  and  _498
REMARK  195  A    between atoms: _497  and  _500
REMARK  196  A    between atoms: _500  and  _501
REMARK  197  A    between atoms: _503  and  _505
REMARK  198  A    between atoms: _505  and  _506
REMARK  199  A    between atoms: _505  and  _508
REMARK  200  A    between atoms: _508  and  _509
REMARK  201  A    between atoms: _515  and  _517
REMARK  202  A    between atoms: _517  and  _518
REMARK  203  A    between atoms: _517  and  _520
REMARK  204  A    between atoms: _520  and  _521
REMARK  205  A    between atoms: _521  and  _522
REMARK  206  A    between atoms: _525  and  _527
REMARK  207  A    between atoms: _527  and  _528
REMARK  208  A    between atoms: _527  and  _530
REMARK  209  A    between atoms: _533  and  _535
REMARK  210  A    between atoms: _535  and  _536
REMARK  211  A    between atoms: _535  and  _538
REMARK  212  A    between atoms: _538  and  _539
REMARK  213  A    between atoms: _542  and  _544
REMARK  214  A    between atoms: _544  and  _545
REMARK  215  A    between atoms: _544  and  _547
REMARK  216  A    between atoms: _550  and  _552
REMARK  217  A    between atoms: _552  and  _553
REMARK  218  A    between atoms: _556  and  _558
REMARK  219  A    between atoms: _558  and  _559
REMARK  220  A    between atoms: _558  and  _561
REMARK  221  A    between atoms: _561  and  _562
REMARK  222  A    between atoms: _564  and  _566
REMARK  223  A    between atoms: _566  and  _567
REMARK  224  A    between atoms: _566  and  _569
REMARK  225  A    between atoms: _569  and  _570
REMARK  226  A    between atoms: _572  and  _574
REMARK  227  A    between atoms: _574  and  _575
REMARK  228  A    between atoms: _574  and  _577
REMARK  229  A    between atoms: _577  and  _578
REMARK  230  A    between atoms: _581  and  _583
REMARK  231  A    between atoms: _583  and  _584
REMARK  232  A    between atoms: _583  and  _586
REMARK  233  A    between atoms: _586  and  _587
REMARK  234  A    between atoms: _592  and  _593
REMARK  235  A    between atoms: _595  and  _597
REMARK  236  A    between atoms: _597  and  _598
REMARK  237  A    between atoms: _597  and  _600
REMARK  238  A    between atoms: _600  and  _601
REMARK  239  A    between atoms: _607  and  _609
REMARK  240  A    between atoms: _609  and  _610
REMARK  241  A    between atoms: _609  and  _612
REMARK  242  A    between atoms: _612  and  _613
REMARK  243  A    between atoms: _615  and  _617
REMARK  244  A    between atoms: _617  and  _618
REMARK  245  A    between atoms: _617  and  _620
REMARK  246  A    between atoms: _620  and  _621
REMARK  247  A    between atoms: _624  and  _626
REMARK  248  A    between atoms: _626  and  _627
REMARK  249  A    between atoms: _626  and  _629
REMARK  250  A    between atoms: _629  and  _630
REMARK  251  A    between atoms: _635  and  _636
REMARK                            x       y       z     vdW  Elec       q    Type
REMARK                         _______ _______ _______ _____ _____    ______ ____
ROOT
ATOM      1  CA  THR A   1      10.546   4.151 -11.719  0.00  0.00    +0.160 C 
ENDROOT
BRANCH   1   2
ATOM      2  N   THR A   1      11.954   4.062 -11.301  0.00  0.00    -0.237 NA
ATOM      3  H   THR A   1      12.229   4.380 -10.350  0.00  0.00    +0.142 HD
ENDBRANCH   1   2
BRANCH   1   4
ATOM      4  CB  THR A   1       9.531   3.909 -10.569  0.00  0.00    +0.134 C 
ATOM      5  CG2 THR A   1       9.567   2.465 -10.106  0.00  0.00    +0.034 C 
BRANCH   4   6
ATOM      6  OG1 THR A   1       9.804   4.794  -9.473  0.00  0.00    -0.383 OA
ATOM      7  HG1 THR A   1      10.721   4.629  -9.137  0.00  0.00    +0.210 HD
ENDBRANCH   4   6
ENDBRANCH   1   4
BRANCH   1   8
ATOM      8  C   THR A   1      10.171   5.445 -12.409  0.00  0.00    +0.227 C 
ATOM      9  O   THR A   1      10.660   6.527 -12.059  0.00  0.00    -0.287 OA
ENDBRANCH   1   8
TORSDOF 4
REMARK  Name = ../refined-set-2016/2ihj/2ihj_pocket.pdb
REMARK  251 active torsions:
REMARK  status: ('A' for Active; 'I' for Inactive)
REMARK    1  A    between atoms: _1  and  _3
REMARK    2  A    between atoms: _3  and  _4
REMARK    3  A    between atoms: _3  and  _6
REMARK    4  A    between atoms: _6  and  _7
REMARK    5  A    between atoms: _11  and  _12
REMARK    6  A    between atoms: _17  and  _19
REMARK    7  A    between atoms: _19  and  _20
REMARK    8  A    between atoms: _23  and  _25
REMARK    9  A    between atoms: _25  and  _26
REMARK   10  A    between atoms: _25  and  _28
REMARK   11  A    between atoms: _28  and  _29
REMARK   12  A    between atoms: _31  and  _33
REMARK   13  A    between atoms: _33  and  _34
REMARK   14  A    between atoms: _33  and  _36
REMARK   15  A    between atoms: _36  and  _37
REMARK   16  A    between atoms: _41  and  _42
REMARK   17  A    between atoms: _47  and  _49
REMARK   18  A    between atoms: _49  and  _50
REMARK   19  A    between atoms: _49  and  _52
REMARK   20  A    between atoms: _52  and  _53
REMARK   21  A    between atoms: _56  and  _58
REMARK   22  A    between atoms: _58  and  _59
REMARK   23  A    between atoms: _58  and  _61
REMARK   24  A    between atoms: _61  and  _62
REMARK   25  A    between atoms: _62  and  _63
REMARK   26  A    between atoms: _63  and  _64
REMARK   27  A    between atoms: _73  and  _75
REMARK   28  A    between atoms: _75  and  _76
REMARK   29  A    between atoms: _75  and  _78
REMARK   30  A    between atoms: _78  and  _79
REMARK   31  A    between atoms: _85  and  _87
REMARK   32  A    between atoms: _87  and  _88
REMARK   33  A    between atoms: _87  and  _90
REMARK   34  A    between atoms: _90  and  _91
REMARK   35  A    between atoms: _96  and  _98
REMARK   36  A    between atoms: _98  and  _99
REMARK   37  A    between atoms: _102  and  _104
REMARK   38  A    between atoms: _104  and  _105
REMARK   39  A    between atoms: _104  and  _107
REMARK   40  A    between atoms: _107  and  _108
REMARK   41  A    between atoms: _113  and  _115
REMARK   42  A    between atoms: _115  and  _116
REMARK   43  A    between atoms: _115  and  _118
REMARK   44  A    between atoms: _118  and  _119
REMARK   45  A    between atoms: _122  and  _124
REMARK   46  A    between atoms: _124  and  _125
REMARK   47  A    between atoms: _124  and  _127
REMARK   48  A    between atoms: _127  and  _128
REMARK   49  A    between atoms: _131  and  _133
REMARK   50  A    between atoms: _133  and  _134
REMARK   51  A    between atoms: _136  and  _138
REMARK   52  A    between atoms: _138  and  _139
REMARK   53  A    between atoms: _138  and  _141
REMARK   54  A    between atoms: _141  and  _142
REMARK   55  A    between atoms: _144  and  _146
REMARK   56  A    between atoms: _146  and  _147
REMARK   57  A    between atoms: _146  and  _149
REMARK   58  A    between atoms: _149  and  _150
REMARK   59  A    between atoms: _150  and  _151
REMARK   60  A    between atoms: _153  and  _155
REMARK   61  A    between atoms: _155  and  _156
REMARK   62  A    between atoms: _155  and  _158
REMARK   63  A    between atoms: _158  and  _159
REMARK   64  A    between atoms: _159  and  _160
REMARK   65  A    between atoms: _163  and  _165
REMARK   66  A    between atoms: _165  and  _166
REMARK   67  A    between atoms: _165  and  _168
REMARK   68  A    between atoms: _168  and  _169
REMARK   69  A    between atoms: _174  and  _175
REMARK   70  A    between atoms: _177  and  _179
REMARK   71  A    between atoms: _179  and  _180
REMARK   72  A    between atoms: _179  and  _182
REMARK   73  A    between atoms: _185  and  _187
REMARK   74  A    between atoms: _187  and  _188
REMARK   75  A    between atoms: _187  and  _190
REMARK   76  A    between atoms: _190  and  _191
REMARK   77  A    between atoms: _194  and  _196
REMARK   78  A    between atoms: _196  and  _197
REMARK   79  A    between atoms: _196  and  _199
REMARK   80  A    between atoms: _199  and  _200
REMARK   81  A    between atoms: _200  and  _201
REMARK   82  A    between atoms: _201  and  _202
REMARK   83  A    between atoms: _202  and  _203
REMARK   84  A    between atoms: _207  and  _209
REMARK   85  A    between atoms: _209  and  _210
REMARK   86  A    between atoms: _209  and  _212
REMARK   87  A    between atoms: _212  and  _213
REMARK   88  A    between atoms: _216  and  _218
REMARK   89  A    between atoms: _218  and  _219
REMARK   90  A    between atoms: _218  and  _221
REMARK   91  A    between atoms: _221  and  _222
REMARK   92  A    between atoms: _222  and  _223
REMARK   93  A    between atoms: _225  and  _227
REMARK   94  A    between atoms: _227  and  _228
REMARK   95  A    between atoms: _227  and  _230
REMARK   96  A    between atoms: _230  and  _231
REMARK   97  A    between atoms: _241  and  _243
REMARK   98  A    between atoms: _243  and  _244
REMARK   99  A    between atoms: _243  and  _246
REMARK  100  A    between atoms: _246  and  _247
REMARK  101  A    between atoms: _250  and  _252
REMARK  102  A    between atoms: _252  and  _253
REMARK  103  A    between atoms: _252  and  _255
REMARK  104  A    between atoms: _255  and  _256
REMARK  105  A    between atoms: _262  and  _264
REMARK  106  A    between atoms: _264  and  _265
REMARK  107  A    between atoms: _264  and  _267
REMARK  108  A    between atoms: _267  and  _268
REMARK  109  A    between atoms: _271  and  _273
REMARK  110  A    between atoms: _273  and  _274
REMARK  111  A    between atoms: _276  and  _278
REMARK  112  A    between atoms: _278  and  _279
REMARK  113  A    between atoms: _278  and  _281
REMARK  114  A    between atoms: _281  and  _282
REMARK  115  A    between atoms: _285  and  _287
REMARK  116  A    between atoms: _287  and  _288
REMARK  117  A    between atoms: _287  and  _290
REMARK  118  A    between atoms: _290  and  _291
REMARK  119  A    between atoms: _294  and  _296
REMARK  120  A    between atoms: _296  and  _297
REMARK  121  A    between atoms: _296  and  _299
REMARK  122  A    between atoms: _299  and  _300
REMARK  123  A    between atoms: _303  and  _305
REMARK  124  A    between atoms: _305  and  _306
REMARK  125  A    between atoms: _305  and  _308
REMARK  126  A    between atoms: _308  and  _309
REMARK  127  A    between atoms: _319  and  _321
REMARK  128  A    between atoms: _321  and  _322
REMARK  129  A    between atoms: _321  and  _324
REMARK  130  A    between atoms: _324  and  _325
REMARK  131  A    between atoms: _325  and  _326
REMARK  132  A    between atoms: _329  and  _331
REMARK  133  A    between atoms: _331  and  _332
REMARK  134  A    between atoms: _331  and  _334
REMARK  135  A    between atoms: _334  and  _335
REMARK  136  A    between atoms: _335  and  _336
REMARK  137  A    between atoms: _336  and  _337
REMARK  138  A    between atoms: _346  and  _348
REMARK  139  A    between atoms: _348  and  _349
REMARK  140  A    between atoms: _348  and  _351
REMARK  141  A    between atoms: _351  and  _352
REMARK  142  A    between atoms: _357  and  _358
REMARK  143  A    between atoms: _360  and  _362
REMARK  144  A    between atoms: _362  and  _363
REMARK  145  A    between atoms: _362  and  _365
REMARK  146  A    between atoms: _365  and  _366
REMARK  147  A    between atoms: _366  and  _367
REMARK  148  A    between atoms: _372  and  _374
REMARK  149  A    between atoms: _374  and  _375
REMARK  150  A    between atoms: _374  and  _377
REMARK  151  A    between atoms: _377  and  _378
REMARK  152  A    between atoms: _384  and  _386
REMARK  153  A    between atoms: _386  and  _387
REMARK  154  A    between atoms: _386  and  _389
REMARK  155  A    between atoms: _389  and  _390
REMARK  156  A    between atoms: _390  and  _391
REMARK  157  A    between atoms: _391  and  _392
REMARK  158  A    between atoms: _392  and  _393
REMARK  159  A    between atoms: _397  and  _399
REMARK  160  A    between atoms: _399  and  _400
REMARK  161  A    between atoms: _402  and  _404
REMARK  162  A    between atoms: _404  and  _405
REMARK  163  A    between atoms: _404  and  _407
REMARK  164  A    between atoms: _407  and  _408
REMARK  165  A    between atoms: _414  and  _415
REMARK  166  A    between atoms: _420  and  _422
REMARK  167  A    between atoms: _422  and  _423
REMARK  168  A    between atoms: _422  and  _425
REMARK  169  A    between atoms: _425  and  _426
REMARK  170  A    between atoms: _426  and  _427
REMARK  171  A    between atoms: _427  and  _428
REMARK  172  A    between atoms: _437  and  _439
REMARK  173  A    between atoms: _439  and  _440
REMARK  174  A    between atoms: _442  and  _444
REMARK  175  A    between atoms: _444  and  _445
REMARK  176  A    between atoms: _444  and  _447
REMARK  177  A    between atoms: _447  and  _448
REMARK  178  A    between atoms: _453  and  _455
REMARK  179  A    between atoms: _455  and  _456
REMARK  180  A    between atoms: _455  and  _458
REMARK  181  A    between atoms: _458  and  _459
REMARK  182  A    between atoms: _463  and  _464
REMARK  183  A    between atoms: _469  and  _471
REMARK  184  A    between atoms: _471  and  _472
REMARK  185  A    between atoms: _475  and  _477
REMARK  186  A    between atoms: _477  and  _478
REMARK  187  A    between atoms: _477  and  _480
REMARK  188  A    between atoms: _480  and  _481
REMARK  189  A    between atoms: _486  and  _488
REMARK  190  A    between atoms: _488  and  _489
REMARK  191  A    between atoms: _488  and  _491
REMARK  192  A    between atoms: _491  and  _492
REMARK  193  A    between atoms: _495  and  _497
REMARK  194  A    between atoms: _497  and  _498
REMARK  195  A    between atoms: _497  and  _500
REMARK  196  A    between atoms: _500  and  _501
REMARK  197  A    between atoms: _503  and  _505
REMARK  198  A    between atoms: _505  and  _506
REMARK  199  A    between atoms: _505  and  _508
REMARK  200  A    between atoms: _508  and  _509
REMARK  201  A    between atoms: _515  and  _517
REMARK  202  A    between atoms: _517  and  _518
REMARK  203  A    between atoms: _517  and  _520
REMARK  204  A    between atoms: _520  and  _521
REMARK  205  A    between atoms: _521  and  _522
REMARK  206  A    between atoms: _525  and  _527
REMARK  207  A    between atoms: _527  and  _528
REMARK  208  A    between atoms: _527  and  _530
REMARK  209  A    between atoms: _533  and  _535
REMARK  210  A    between atoms: _535  and  _536
REMARK  211  A    between atoms: _535  and  _538
REMARK  212  A    between atoms: _538  and  _539
REMARK  213  A    between atoms: _542  and  _544
REMARK  214  A    between atoms: _544  and  _545
REMARK  215  A    between atoms: _544  and  _547
REMARK  216  A    between atoms: _550  and  _552
REMARK  217  A    between atoms: _552  and  _553
REMARK  218  A    between atoms: _556  and  _558
REMARK  219  A    between atoms: _558  and  _559
REMARK  220  A    between atoms: _558  and  _561
REMARK  221  A    between atoms: _561  and  _562
REMARK  222  A    between atoms: _564  and  _566
REMARK  223  A    between atoms: _566  and  _567
REMARK  224  A    between atoms: _566  and  _569
REMARK  225  A    between atoms: _569  and  _570
REMARK  226  A    between atoms: _572  and  _574
REMARK  227  A    between atoms: _574  and  _575
REMARK  228  A    between atoms: _574  and  _577
REMARK  229  A    between atoms: _577  and  _578
REMARK  230  A    between atoms: _581  and  _583
REMARK  231  A    between atoms: _583  and  _584
REMARK  232  A    between atoms: _583  and  _586
REMARK  233  A    between atoms: _586  and  _587
REMARK  234  A    between atoms: _592  and  _593
REMARK  235  A    between atoms: _595  and  _597
REMARK  236  A    between atoms: _597  and  _598
REMARK  237  A    between atoms: _597  and  _600
REMARK  238  A    between atoms: _600  and  _601
REMARK  239  A    between atoms: _607  and  _609
REMARK  240  A    between atoms: _609  and  _610
REMARK  241  A    between atoms: _609  and  _612
REMARK  242  A    between atoms: _612  and  _613
REMARK  243  A    between atoms: _615  and  _617
REMARK  244  A    between atoms: _617  and  _618
REMARK  245  A    between atoms: _617  and  _620
REMARK  246  A    between atoms: _620  and  _621
REMARK  247  A    between atoms: _624  and  _626
REMARK  248  A    between atoms: _626  and  _627
REMARK  249  A    between atoms: _626  and  _629
REMARK  250  A    between atoms: _629  and  _630
REMARK  251  A    between atoms: _635  and  _636
REMARK                            x       y       z     vdW  Elec       q    Type
REMARK                         _______ _______ _______ _____ _____    ______ ____
ROOT
ATOM      1  CG  TYR A   1      16.188   6.263  -4.977  0.00  0.00    -0.020 A 
ATOM      2  CD2 TYR A   1      17.251   5.784  -4.198  0.00  0.00    -0.001 A 
ATOM      3  CE2 TYR A   1      17.145   4.580  -3.472  0.00  0.00    +0.036 A 
ATOM      4  CZ  TYR A   1      15.965   3.849  -3.522  0.00  0.00    +0.134 A 
ATOM      5  CE1 TYR A   1      14.894   4.305  -4.278  0.00  0.00    +0.036 A 
ATOM      6  CD1 TYR A   1      15.005   5.512  -4.994  0.00  0.00    -0.001 A 
ENDROOT
BRANCH   4   7
ATOM      7  OH  TYR A   1      15.856   2.670  -2.812  0.00  0.00    -0.506 OA
ATOM      8  HH  TYR A   1      14.958   2.280  -2.957  0.00  0.00    +0.292 HD
ENDBRANCH   4   7
BRANCH   1   9
ATOM      9  CB  TYR A   1      16.291   7.575  -5.767  0.00  0.00    +0.051 C 
BRANCH   9  10
ATOM     10  CA  TYR A   1      17.523   8.452  -5.481  0.00  0.00    +0.137 C 
BRANCH  10  11
ATOM     11  N   TYR A   1      17.242   9.869  -5.765  0.00  0.00    -0.239 NA
ATOM     12  H   TYR A   1      16.334  10.126  -6.203  0.00  0.00    +0.142 HD
ENDBRANCH  10  11
BRANCH  10  13
ATOM     13  C   TYR A   1      18.742   7.973  -6.292  0.00  0.00    +0.224 C 
ATOM     14  O   TYR A   1      19.643   7.323  -5.750  0.00  0.00    -0.287 OA
ENDBRANCH  10  13
ENDBRANCH   9  10
ENDBRANCH   1   9
TORSDOF 5
REMARK  Name = ../refined-set-2016/2ihj/2ihj_pocket.pdb
REMARK  251 active torsions:
REMARK  status: ('A' for Active; 'I' for Inactive)
REMARK    1  A    between atoms: _1  and  _3
REMARK    2  A    between atoms: _3  and  _4
REMARK    3  A    between atoms: _3  and  _6
REMARK    4  A    between atoms: _6  and  _7
REMARK    5  A    between atoms: _11  and  _12
REMARK    6  A    between atoms: _17  and  _19
REMARK    7  A    between atoms: _19  and  _20
REMARK    8  A    between atoms: _23  and  _25
REMARK    9  A    between atoms: _25  and  _26
REMARK   10  A    between atoms: _25  and  _28
REMARK   11  A    between atoms: _28  and  _29
REMARK   12  A    between atoms: _31  and  _33
REMARK   13  A    between atoms: _33  and  _34
REMARK   14  A    between atoms: _33  and  _36
REMARK   15  A    between atoms: _36  and  _37
REMARK   16  A    between atoms: _41  and  _42
REMARK   17  A    between atoms: _47  and  _49
REMARK   18  A    between atoms: _49  and  _50
REMARK   19  A    between atoms: _49  and  _52
REMARK   20  A    between atoms: _52  and  _53
REMARK   21  A    between atoms: _56  and  _58
REMARK   22  A    between atoms: _58  and  _59
REMARK   23  A    between atoms: _58  and  _61
REMARK   24  A    between atoms: _61  and  _62
REMARK   25  A    between atoms: _62  and  _63
REMARK   26  A    between atoms: _63  and  _64
REMARK   27  A    between atoms: _73  and  _75
REMARK   28  A    between atoms: _75  and  _76
REMARK   29  A    between atoms: _75  and  _78
REMARK   30  A    between atoms: _78  and  _79
REMARK   31  A    between atoms: _85  and  _87
REMARK   32  A    between atoms: _87  and  _88
REMARK   33  A    between atoms: _87  and  _90
REMARK   34  A    between atoms: _90  and  _91
REMARK   35  A    between atoms: _96  and  _98
REMARK   36  A    between atoms: _98  and  _99
REMARK   37  A    between atoms: _102  and  _104
REMARK   38  A    between atoms: _104  and  _105
REMARK   39  A    between atoms: _104  and  _107
REMARK   40  A    between atoms: _107  and  _108
REMARK   41  A    between atoms: _113  and  _115
REMARK   42  A    between atoms: _115  and  _116
REMARK   43  A    between atoms: _115  and  _118
REMARK   44  A    between atoms: _118  and  _119
REMARK   45  A    between atoms: _122  and  _124
REMARK   46  A    between atoms: _124  and  _125
REMARK   47  A    between atoms: _124  and  _127
REMARK   48  A    between atoms: _127  and  _128
REMARK   49  A    between atoms: _131  and  _133
REMARK   50  A    between atoms: _133  and  _134
REMARK   51  A    between atoms: _136  and  _138
REMARK   52  A    between atoms: _138  and  _139
REMARK   53  A    between atoms: _138  and  _141
REMARK   54  A    between atoms: _141  and  _142
REMARK   55  A    between atoms: _144  and  _146
REMARK   56  A    between atoms: _146  and  _147
REMARK   57  A    between atoms: _146  and  _149
REMARK   58  A    between atoms: _149  and  _150
REMARK   59  A    between atoms: _150  and  _151
REMARK   60  A    between atoms: _153  and  _155
REMARK   61  A    between atoms: _155  and  _156
REMARK   62  A    between atoms: _155  and  _158
REMARK   63  A    between atoms: _158  and  _159
REMARK   64  A    between atoms: _159  and  _160
REMARK   65  A    between atoms: _163  and  _165
REMARK   66  A    between atoms: _165  and  _166
REMARK   67  A    between atoms: _165  and  _168
REMARK   68  A    between atoms: _168  and  _169
REMARK   69  A    between atoms: _174  and  _175
REMARK   70  A    between atoms: _177  and  _179
REMARK   71  A    between atoms: _179  and  _180
REMARK   72  A    between atoms: _179  and  _182
REMARK   73  A    between atoms: _185  and  _187
REMARK   74  A    between atoms: _187  and  _188
REMARK   75  A    between atoms: _187  and  _190
REMARK   76  A    between atoms: _190  and  _191
REMARK   77  A    between atoms: _194  and  _196
REMARK   78  A    between atoms: _196  and  _197
REMARK   79  A    between atoms: _196  and  _199
REMARK   80  A    between atoms: _199  and  _200
REMARK   81  A    between atoms: _200  and  _201
REMARK   82  A    between atoms: _201  and  _202
REMARK   83  A    between atoms: _202  and  _203
REMARK   84  A    between atoms: _207  and  _209
REMARK   85  A    between atoms: _209  and  _210
REMARK   86  A    between atoms: _209  and  _212
REMARK   87  A    between atoms: _212  and  _213
REMARK   88  A    between atoms: _216  and  _218
REMARK   89  A    between atoms: _218  and  _219
REMARK   90  A    between atoms: _218  and  _221
REMARK   91  A    between atoms: _221  and  _222
REMARK   92  A    between atoms: _222  and  _223
REMARK   93  A    between atoms: _225  and  _227
REMARK   94  A    between atoms: _227  and  _228
REMARK   95  A    between atoms: _227  and  _230
REMARK   96  A    between atoms: _230  and  _231
REMARK   97  A    between atoms: _241  and  _243
REMARK   98  A    between atoms: _243  and  _244
REMARK   99  A    between atoms: _243  and  _246
REMARK  100  A    between atoms: _246  and  _247
REMARK  101  A    between atoms: _250  and  _252
REMARK  102  A    between atoms: _252  and  _253
REMARK  103  A    between atoms: _252  and  _255
REMARK  104  A    between atoms: _255  and  _256
REMARK  105  A    between atoms: _262  and  _264
REMARK  106  A    between atoms: _264  and  _265
REMARK  107  A    between atoms: _264  and  _267
REMARK  108  A    between atoms: _267  and  _268
REMARK  109  A    between atoms: _271  and  _273
REMARK  110  A    between atoms: _273  and  _274
REMARK  111  A    between atoms: _276  and  _278
REMARK  112  A    between atoms: _278  and  _279
REMARK  113  A    between atoms: _278  and  _281
REMARK  114  A    between atoms: _281  and  _282
REMARK  115  A    between atoms: _285  and  _287
REMARK  116  A    between atoms: _287  and  _288
REMARK  117  A    between atoms: _287  and  _290
REMARK  118  A    between atoms: _290  and  _291
REMARK  119  A    between atoms: _294  and  _296
REMARK  120  A    between atoms: _296  and  _297
REMARK  121  A    between atoms: _296  and  _299
REMARK  122  A    between atoms: _299  and  _300
REMARK  123  A    between atoms: _303  and  _305
REMARK  124  A    between atoms: _305  and  _306
REMARK  125  A    between atoms: _305  and  _308
REMARK  126  A    between atoms: _308  and  _309
REMARK  127  A    between atoms: _319  and  _321
REMARK  128  A    between atoms: _321  and  _322
REMARK  129  A    between atoms: _321  and  _324
REMARK  130  A    between atoms: _324  and  _325
REMARK  131  A    between atoms: _325  and  _326
REMARK  132  A    between atoms: _329  and  _331
REMARK  133  A    between atoms: _331  and  _332
REMARK  134  A    between atoms: _331  and  _334
REMARK  135  A    between atoms: _334  and  _335
REMARK  136  A    between atoms: _335  and  _336
REMARK  137  A    between atoms: _336  and  _337
REMARK  138  A    between atoms: _346  and  _348
REMARK  139  A    between atoms: _348  and  _349
REMARK  140  A    between atoms: _348  and  _351
REMARK  141  A    between atoms: _351  and  _352
REMARK  142  A    between atoms: _357  and  _358
REMARK  143  A    between atoms: _360  and  _362
REMARK  144  A    between atoms: _362  and  _363
REMARK  145  A    between atoms: _362  and  _365
REMARK  146  A    between atoms: _365  and  _366
REMARK  147  A    between atoms: _366  and  _367
REMARK  148  A    between atoms: _372  and  _374
REMARK  149  A    between atoms: _374  and  _375
REMARK  150  A    between atoms: _374  and  _377
REMARK  151  A    between atoms: _377  and  _378
REMARK  152  A    between atoms: _384  and  _386
REMARK  153  A    between atoms: _386  and  _387
REMARK  154  A    between atoms: _386  and  _389
REMARK  155  A    between atoms: _389  and  _390
REMARK  156  A    between atoms: _390  and  _391
REMARK  157  A    between atoms: _391  and  _392
REMARK  158  A    between atoms: _392  and  _393
REMARK  159  A    between atoms: _397  and  _399
REMARK  160  A    between atoms: _399  and  _400
REMARK  161  A    between atoms: _402  and  _404
REMARK  162  A    between atoms: _404  and  _405
REMARK  163  A    between atoms: _404  and  _407
REMARK  164  A    between atoms: _407  and  _408
REMARK  165  A    between atoms: _414  and  _415
REMARK  166  A    between atoms: _420  and  _422
REMARK  167  A    between atoms: _422  and  _423
REMARK  168  A    between atoms: _422  and  _425
REMARK  169  A    between atoms: _425  and  _426
REMARK  170  A    between atoms: _426  and  _427
REMARK  171  A    between atoms: _427  and  _428
REMARK  172  A    between atoms: _437  and  _439
REMARK  173  A    between atoms: _439  and  _440
REMARK  174  A    between atoms: _442  and  _444
REMARK  175  A    between atoms: _444  and  _445
REMARK  176  A    between atoms: _444  and  _447
REMARK  177  A    between atoms: _447  and  _448
REMARK  178  A    between atoms: _453  and  _455
REMARK  179  A    between atoms: _455  and  _456
REMARK  180  A    between atoms: _455  and  _458
REMARK  181  A    between atoms: _458  and  _459
REMARK  182  A    between atoms: _463  and  _464
REMARK  183  A    between atoms: _469  and  _471
REMARK  184  A    between atoms: _471  and  _472
REMARK  185  A    between atoms: _475  and  _477
REMARK  186  A    between atoms: _477  and  _478
REMARK  187  A    between atoms: _477  and  _480
REMARK  188  A    between atoms: _480  and  _481
REMARK  189  A    between atoms: _486  and  _488
REMARK  190  A    between atoms: _488  and  _489
REMARK  191  A    between atoms: _488  and  _491
REMARK  192  A    between atoms: _491  and  _492
REMARK  193  A    between atoms: _495  and  _497
REMARK  194  A    between atoms: _497  and  _498
REMARK  195  A    between atoms: _497  and  _500
REMARK  196  A    between atoms: _500  and  _501
REMARK  197  A    between atoms: _503  and  _505
REMARK  198  A    between atoms: _505  and  _506
REMARK  199  A    between atoms: _505  and  _508
REMARK  200  A    between atoms: _508  and  _509
REMARK  201  A    between atoms: _515  and  _517
REMARK  202  A    between atoms: _517  and  _518
REMARK  203  A    between atoms: _517  and  _520
REMARK  204  A    between atoms: _520  and  _521
REMARK  205  A    between atoms: _521  and  _522
REMARK  206  A    between atoms: _525  and  _527
REMARK  207  A    between atoms: _527  and  _528
REMARK  208  A    between atoms: _527  and  _530
REMARK  209  A    between atoms: _533  and  _535
REMARK  210  A    between atoms: _535  and  _536
REMARK  211  A    between atoms: _535  and  _538
REMARK  212  A    between atoms: _538  and  _539
REMARK  213  A    between atoms: _542  and  _544
REMARK  214  A    between atoms: _544  and  _545
REMARK  215  A    between atoms: _544  and  _547
REMARK  216  A    between atoms: _550  and  _552
REMARK  217  A    between atoms: _552  and  _553
REMARK  218  A    between atoms: _556  and  _558
REMARK  219  A    between atoms: _558  and  _559
REMARK  220  A    between atoms: _558  and  _561
REMARK  221  A    between atoms: _561  and  _562
REMARK  222  A    between atoms: _564  and  _566
REMARK  223  A    between atoms: _566  and  _567
REMARK  224  A    between atoms: _566  and  _569
REMARK  225  A    between atoms: _569  and  _570
REMARK  226  A    between atoms: _572  and  _574
REMARK  227  A    between atoms: _574  and  _575
REMARK  228  A    between atoms: _574  and  _577
REMARK  229  A    between atoms: _577  and  _578
REMARK  230  A    between atoms: _581  and  _583
REMARK  231  A    between atoms: _583  and  _584
REMARK  232  A    between atoms: _583  and  _586
REMARK  233  A    between atoms: _586  and  _587
REMARK  234  A    between atoms: _592  and  _593
REMARK  235  A    between atoms: _595  and  _597
REMARK  236  A    between atoms: _597  and  _598
REMARK  237  A    between atoms: _597  and  _600
REMARK  238  A    between atoms: _600  and  _601
REMARK  239  A    between atoms: _607  and  _609
REMARK  240  A    between atoms: _609  and  _610
REMARK  241  A    between atoms: _609  and  _612
REMARK  242  A    between atoms: _612  and  _613
REMARK  243  A    between atoms: _615  and  _617
REMARK  244  A    between atoms: _617  and  _618
REMARK  245  A    between atoms: _617  and  _620
REMARK  246  A    between atoms: _620  and  _621
REMARK  247  A    between atoms: _624  and  _626
REMARK  248  A    between atoms: _626  and  _627
REMARK  249  A    between atoms: _626  and  _629
REMARK  250  A    between atoms: _629  and  _630
REMARK  251  A    between atoms: _635  and  _636
REMARK                            x       y       z     vdW  Elec       q    Type
REMARK                         _______ _______ _______ _____ _____    ______ ____
ROOT
ATOM      1  O   HOH     1      12.732   4.621  -8.382  0.00  0.00    +0.000 OA
ENDROOT
TORSDOF 0
REMARK  Name = ../refined-set-2016/2ihj/2ihj_pocket.pdb
REMARK  251 active torsions:
REMARK  status: ('A' for Active; 'I' for Inactive)
REMARK    1  A    between atoms: _1  and  _3
REMARK    2  A    between atoms: _3  and  _4
REMARK    3  A    between atoms: _3  and  _6
REMARK    4  A    between atoms: _6  and  _7
REMARK    5  A    between atoms: _11  and  _12
REMARK    6  A    between atoms: _17  and  _19
REMARK    7  A    between atoms: _19  and  _20
REMARK    8  A    between atoms: _23  and  _25
REMARK    9  A    between atoms: _25  and  _26
REMARK   10  A    between atoms: _25  and  _28
REMARK   11  A    between atoms: _28  and  _29
REMARK   12  A    between atoms: _31  and  _33
REMARK   13  A    between atoms: _33  and  _34
REMARK   14  A    between atoms: _33  and  _36
REMARK   15  A    between atoms: _36  and  _37
REMARK   16  A    between atoms: _41  and  _42
REMARK   17  A    between atoms: _47  and  _49
REMARK   18  A    between atoms: _49  and  _50
REMARK   19  A    between atoms: _49  and  _52
REMARK   20  A    between atoms: _52  and  _53
REMARK   21  A    between atoms: _56  and  _58
REMARK   22  A    between atoms: _58  and  _59
REMARK   23  A    between atoms: _58  and  _61
REMARK   24  A    between atoms: _61  and  _62
REMARK   25  A    between atoms: _62  and  _63
REMARK   26  A    between atoms: _63  and  _64
REMARK   27  A    between atoms: _73  and  _75
REMARK   28  A    between atoms: _75  and  _76
REMARK   29  A    between atoms: _75  and  _78
REMARK   30  A    between atoms: _78  and  _79
REMARK   31  A    between atoms: _85  and  _87
REMARK   32  A    between atoms: _87  and  _88
REMARK   33  A    between atoms: _87  and  _90
REMARK   34  A    between atoms: _90  and  _91
REMARK   35  A    between atoms: _96  and  _98
REMARK   36  A    between atoms: _98  and  _99
REMARK   37  A    between atoms: _102  and  _104
REMARK   38  A    between atoms: _104  and  _105
REMARK   39  A    between atoms: _104  and  _107
REMARK   40  A    between atoms: _107  and  _108
REMARK   41  A    between atoms: _113  and  _115
REMARK   42  A    between atoms: _115  and  _116
REMARK   43  A    between atoms: _115  and  _118
REMARK   44  A    between atoms: _118  and  _119
REMARK   45  A    between atoms: _122  and  _124
REMARK   46  A    between atoms: _124  and  _125
REMARK   47  A    between atoms: _124  and  _127
REMARK   48  A    between atoms: _127  and  _128
REMARK   49  A    between atoms: _131  and  _133
REMARK   50  A    between atoms: _133  and  _134
REMARK   51  A    between atoms: _136  and  _138
REMARK   52  A    between atoms: _138  and  _139
REMARK   53  A    between atoms: _138  and  _141
REMARK   54  A    between atoms: _141  and  _142
REMARK   55  A    between atoms: _144  and  _146
REMARK   56  A    between atoms: _146  and  _147
REMARK   57  A    between atoms: _146  and  _149
REMARK   58  A    between atoms: _149  and  _150
REMARK   59  A    between atoms: _150  and  _151
REMARK   60  A    between atoms: _153  and  _155
REMARK   61  A    between atoms: _155  and  _156
REMARK   62  A    between atoms: _155  and  _158
REMARK   63  A    between atoms: _158  and  _159
REMARK   64  A    between atoms: _159  and  _160
REMARK   65  A    between atoms: _163  and  _165
REMARK   66  A    between atoms: _165  and  _166
REMARK   67  A    between atoms: _165  and  _168
REMARK   68  A    between atoms: _168  and  _169
REMARK   69  A    between atoms: _174  and  _175
REMARK   70  A    between atoms: _177  and  _179
REMARK   71  A    between atoms: _179  and  _180
REMARK   72  A    between atoms: _179  and  _182
REMARK   73  A    between atoms: _185  and  _187
REMARK   74  A    between atoms: _187  and  _188
REMARK   75  A    between atoms: _187  and  _190
REMARK   76  A    between atoms: _190  and  _191
REMARK   77  A    between atoms: _194  and  _196
REMARK   78  A    between atoms: _196  and  _197
REMARK   79  A    between atoms: _196  and  _199
REMARK   80  A    between atoms: _199  and  _200
REMARK   81  A    between atoms: _200  and  _201
REMARK   82  A    between atoms: _201  and  _202
REMARK   83  A    between atoms: _202  and  _203
REMARK   84  A    between atoms: _207  and  _209
REMARK   85  A    between atoms: _209  and  _210
REMARK   86  A    between atoms: _209  and  _212
REMARK   87  A    between atoms: _212  and  _213
REMARK   88  A    between atoms: _216  and  _218
REMARK   89  A    between atoms: _218  and  _219
REMARK   90  A    between atoms: _218  and  _221
REMARK   91  A    between atoms: _221  and  _222
REMARK   92  A    between atoms: _222  and  _223
REMARK   93  A    between atoms: _225  and  _227
REMARK   94  A    between atoms: _227  and  _228
REMARK   95  A    between atoms: _227  and  _230
REMARK   96  A    between atoms: _230  and  _231
REMARK   97  A    between atoms: _241  and  _243
REMARK   98  A    between atoms: _243  and  _244
REMARK   99  A    between atoms: _243  and  _246
REMARK  100  A    between atoms: _246  and  _247
REMARK  101  A    between atoms: _250  and  _252
REMARK  102  A    between atoms: _252  and  _253
REMARK  103  A    between atoms: _252  and  _255
REMARK  104  A    between atoms: _255  and  _256
REMARK  105  A    between atoms: _262  and  _264
REMARK  106  A    between atoms: _264  and  _265
REMARK  107  A    between atoms: _264  and  _267
REMARK  108  A    between atoms: _267  and  _268
REMARK  109  A    between atoms: _271  and  _273
REMARK  110  A    between atoms: _273  and  _274
REMARK  111  A    between atoms: _276  and  _278
REMARK  112  A    between atoms: _278  and  _279
REMARK  113  A    between atoms: _278  and  _281
REMARK  114  A    between atoms: _281  and  _282
REMARK  115  A    between atoms: _285  and  _287
REMARK  116  A    between atoms: _287  and  _288
REMARK  117  A    between atoms: _287  and  _290
REMARK  118  A    between atoms: _290  and  _291
REMARK  119  A    between atoms: _294  and  _296
REMARK  120  A    between atoms: _296  and  _297
REMARK  121  A    between atoms: _296  and  _299
REMARK  122  A    between atoms: _299  and  _300
REMARK  123  A    between atoms: _303  and  _305
REMARK  124  A    between atoms: _305  and  _306
REMARK  125  A    between atoms: _305  and  _308
REMARK  126  A    between atoms: _308  and  _309
REMARK  127  A    between atoms: _319  and  _321
REMARK  128  A    between atoms: _321  and  _322
REMARK  129  A    between atoms: _321  and  _324
REMARK  130  A    between atoms: _324  and  _325
REMARK  131  A    between atoms: _325  and  _326
REMARK  132  A    between atoms: _329  and  _331
REMARK  133  A    between atoms: _331  and  _332
REMARK  134  A    between atoms: _331  and  _334
REMARK  135  A    between atoms: _334  and  _335
REMARK  136  A    between atoms: _335  and  _336
REMARK  137  A    between atoms: _336  and  _337
REMARK  138  A    between atoms: _346  and  _348
REMARK  139  A    between atoms: _348  and  _349
REMARK  140  A    between atoms: _348  and  _351
REMARK  141  A    between atoms: _351  and  _352
REMARK  142  A    between atoms: _357  and  _358
REMARK  143  A    between atoms: _360  and  _362
REMARK  144  A    between atoms: _362  and  _363
REMARK  145  A    between atoms: _362  and  _365
REMARK  146  A    between atoms: _365  and  _366
REMARK  147  A    between atoms: _366  and  _367
REMARK  148  A    between atoms: _372  and  _374
REMARK  149  A    between atoms: _374  and  _375
REMARK  150  A    between atoms: _374  and  _377
REMARK  151  A    between atoms: _377  and  _378
REMARK  152  A    between atoms: _384  and  _386
REMARK  153  A    between atoms: _386  and  _387
REMARK  154  A    between atoms: _386  and  _389
REMARK  155  A    between atoms: _389  and  _390
REMARK  156  A    between atoms: _390  and  _391
REMARK  157  A    between atoms: _391  and  _392
REMARK  158  A    between atoms: _392  and  _393
REMARK  159  A    between atoms: _397  and  _399
REMARK  160  A    between atoms: _399  and  _400
REMARK  161  A    between atoms: _402  and  _404
REMARK  162  A    between atoms: _404  and  _405
REMARK  163  A    between atoms: _404  and  _407
REMARK  164  A    between atoms: _407  and  _408
REMARK  165  A    between atoms: _414  and  _415
REMARK  166  A    between atoms: _420  and  _422
REMARK  167  A    between atoms: _422  and  _423
REMARK  168  A    between atoms: _422  and  _425
REMARK  169  A    between atoms: _425  and  _426
REMARK  170  A    between atoms: _426  and  _427
REMARK  171  A    between atoms: _427  and  _428
REMARK  172  A    between atoms: _437  and  _439
REMARK  173  A    between atoms: _439  and  _440
REMARK  174  A    between atoms: _442  and  _444
REMARK  175  A    between atoms: _444  and  _445
REMARK  176  A    between atoms: _444  and  _447
REMARK  177  A    between atoms: _447  and  _448
REMARK  178  A    between atoms: _453  and  _455
REMARK  179  A    between atoms: _455  and  _456
REMARK  180  A    between atoms: _455  and  _458
REMARK  181  A    between atoms: _458  and  _459
REMARK  182  A    between atoms: _463  and  _464
REMARK  183  A    between atoms: _469  and  _471
REMARK  184  A    between atoms: _471  and  _472
REMARK  185  A    between atoms: _475  and  _477
REMARK  186  A    between atoms: _477  and  _478
REMARK  187  A    between atoms: _477  and  _480
REMARK  188  A    between atoms: _480  and  _481
REMARK  189  A    between atoms: _486  and  _488
REMARK  190  A    between atoms: _488  and  _489
REMARK  191  A    between atoms: _488  and  _491
REMARK  192  A    between atoms: _491  and  _492
REMARK  193  A    between atoms: _495  and  _497
REMARK  194  A    between atoms: _497  and  _498
REMARK  195  A    between atoms: _497  and  _500
REMARK  196  A    between atoms: _500  and  _501
REMARK  197  A    between atoms: _503  and  _505
REMARK  198  A    between atoms: _505  and  _506
REMARK  199  A    between atoms: _505  and  _508
REMARK  200  A    between atoms: _508  and  _509
REMARK  201  A    between atoms: _515  and  _517
REMARK  202  A    between atoms: _517  and  _518
REMARK  203  A    between atoms: _517  and  _520
REMARK  204  A    between atoms: _520  and  _521
REMARK  205  A    between atoms: _521  and  _522
REMARK  206  A    between atoms: _525  and  _527
REMARK  207  A    between atoms: _527  and  _528
REMARK  208  A    between atoms: _527  and  _530
REMARK  209  A    between atoms: _533  and  _535
REMARK  210  A    between atoms: _535  and  _536
REMARK  211  A    between atoms: _535  and  _538
REMARK  212  A    between atoms: _538  and  _539
REMARK  213  A    between atoms: _542  and  _544
REMARK  214  A    between atoms: _544  and  _545
REMARK  215  A    between atoms: _544  and  _547
REMARK  216  A    between atoms: _550  and  _552
REMARK  217  A    between atoms: _552  and  _553
REMARK  218  A    between atoms: _556  and  _558
REMARK  219  A    between atoms: _558  and  _559
REMARK  220  A    between atoms: _558  and  _561
REMARK  221  A    between atoms: _561  and  _562
REMARK  222  A    between atoms: _564  and  _566
REMARK  223  A    between atoms: _566  and  _567
REMARK  224  A    between atoms: _566  and  _569
REMARK  225  A    between atoms: _569  and  _570
REMARK  226  A    between atoms: _572  and  _574
REMARK  227  A    between atoms: _574  and  _575
REMARK  228  A    between atoms: _574  and  _577
REMARK  229  A    between atoms: _577  and  _578
REMARK  230  A    between atoms: _581  and  _583
REMARK  231  A    between atoms: _583  and  _584
REMARK  232  A    between atoms: _583  and  _586
REMARK  233  A    between atoms: _586  and  _587
REMARK  234  A    between atoms: _592  and  _593
REMARK  235  A    between atoms: _595  and  _597
REMARK  236  A    between atoms: _597  and  _598
REMARK  237  A    between atoms: _597  and  _600
REMARK  238  A    between atoms: _600  and  _601
REMARK  239  A    between atoms: _607  and  _609
REMARK  240  A    between atoms: _609  and  _610
REMARK  241  A    between atoms: _609  and  _612
REMARK  242  A    between atoms: _612  and  _613
REMARK  243  A    between atoms: _615  and  _617
REMARK  244  A    between atoms: _617  and  _618
REMARK  245  A    between atoms: _617  and  _620
REMARK  246  A    between atoms: _620  and  _621
REMARK  247  A    between atoms: _624  and  _626
REMARK  248  A    between atoms: _626  and  _627
REMARK  249  A    between atoms: _626  and  _629
REMARK  250  A    between atoms: _629  and  _630
REMARK  251  A    between atoms: _635  and  _636
REMARK                            x       y       z     vdW  Elec       q    Type
REMARK                         _______ _______ _______ _____ _____    ______ ____
ROOT
ATOM      1  O   HOH     1      13.414   2.374  -1.888  0.00  0.00    +0.000 OA
ENDROOT
TORSDOF 0
REMARK  Name = ../refined-set-2016/2ihj/2ihj_pocket.pdb
REMARK  251 active torsions:
REMARK  status: ('A' for Active; 'I' for Inactive)
REMARK    1  A    between atoms: _1  and  _3
REMARK    2  A    between atoms: _3  and  _4
REMARK    3  A    between atoms: _3  and  _6
REMARK    4  A    between atoms: _6  and  _7
REMARK    5  A    between atoms: _11  and  _12
REMARK    6  A    between atoms: _17  and  _19
REMARK    7  A    between atoms: _19  and  _20
REMARK    8  A    between atoms: _23  and  _25
REMARK    9  A    between atoms: _25  and  _26
REMARK   10  A    between atoms: _25  and  _28
REMARK   11  A    between atoms: _28  and  _29
REMARK   12  A    between atoms: _31  and  _33
REMARK   13  A    between atoms: _33  and  _34
REMARK   14  A    between atoms: _33  and  _36
REMARK   15  A    between atoms: _36  and  _37
REMARK   16  A    between atoms: _41  and  _42
REMARK   17  A    between atoms: _47  and  _49
REMARK   18  A    between atoms: _49  and  _50
REMARK   19  A    between atoms: _49  and  _52
REMARK   20  A    between atoms: _52  and  _53
REMARK   21  A    between atoms: _56  and  _58
REMARK   22  A    between atoms: _58  and  _59
REMARK   23  A    between atoms: _58  and  _61
REMARK   24  A    between atoms: _61  and  _62
REMARK   25  A    between atoms: _62  and  _63
REMARK   26  A    between atoms: _63  and  _64
REMARK   27  A    between atoms: _73  and  _75
REMARK   28  A    between atoms: _75  and  _76
REMARK   29  A    between atoms: _75  and  _78
REMARK   30  A    between atoms: _78  and  _79
REMARK   31  A    between atoms: _85  and  _87
REMARK   32  A    between atoms: _87  and  _88
REMARK   33  A    between atoms: _87  and  _90
REMARK   34  A    between atoms: _90  and  _91
REMARK   35  A    between atoms: _96  and  _98
REMARK   36  A    between atoms: _98  and  _99
REMARK   37  A    between atoms: _102  and  _104
REMARK   38  A    between atoms: _104  and  _105
REMARK   39  A    between atoms: _104  and  _107
REMARK   40  A    between atoms: _107  and  _108
REMARK   41  A    between atoms: _113  and  _115
REMARK   42  A    between atoms: _115  and  _116
REMARK   43  A    between atoms: _115  and  _118
REMARK   44  A    between atoms: _118  and  _119
REMARK   45  A    between atoms: _122  and  _124
REMARK   46  A    between atoms: _124  and  _125
REMARK   47  A    between atoms: _124  and  _127
REMARK   48  A    between atoms: _127  and  _128
REMARK   49  A    between atoms: _131  and  _133
REMARK   50  A    between atoms: _133  and  _134
REMARK   51  A    between atoms: _136  and  _138
REMARK   52  A    between atoms: _138  and  _139
REMARK   53  A    between atoms: _138  and  _141
REMARK   54  A    between atoms: _141  and  _142
REMARK   55  A    between atoms: _144  and  _146
REMARK   56  A    between atoms: _146  and  _147
REMARK   57  A    between atoms: _146  and  _149
REMARK   58  A    between atoms: _149  and  _150
REMARK   59  A    between atoms: _150  and  _151
REMARK   60  A    between atoms: _153  and  _155
REMARK   61  A    between atoms: _155  and  _156
REMARK   62  A    between atoms: _155  and  _158
REMARK   63  A    between atoms: _158  and  _159
REMARK   64  A    between atoms: _159  and  _160
REMARK   65  A    between atoms: _163  and  _165
REMARK   66  A    between atoms: _165  and  _166
REMARK   67  A    between atoms: _165  and  _168
REMARK   68  A    between atoms: _168  and  _169
REMARK   69  A    between atoms: _174  and  _175
REMARK   70  A    between atoms: _177  and  _179
REMARK   71  A    between atoms: _179  and  _180
REMARK   72  A    between atoms: _179  and  _182
REMARK   73  A    between atoms: _185  and  _187
REMARK   74  A    between atoms: _187  and  _188
REMARK   75  A    between atoms: _187  and  _190
REMARK   76  A    between atoms: _190  and  _191
REMARK   77  A    between atoms: _194  and  _196
REMARK   78  A    between atoms: _196  and  _197
REMARK   79  A    between atoms: _196  and  _199
REMARK   80  A    between atoms: _199  and  _200
REMARK   81  A    between atoms: _200  and  _201
REMARK   82  A    between atoms: _201  and  _202
REMARK   83  A    between atoms: _202  and  _203
REMARK   84  A    between atoms: _207  and  _209
REMARK   85  A    between atoms: _209  and  _210
REMARK   86  A    between atoms: _209  and  _212
REMARK   87  A    between atoms: _212  and  _213
REMARK   88  A    between atoms: _216  and  _218
REMARK   89  A    between atoms: _218  and  _219
REMARK   90  A    between atoms: _218  and  _221
REMARK   91  A    between atoms: _221  and  _222
REMARK   92  A    between atoms: _222  and  _223
REMARK   93  A    between atoms: _225  and  _227
REMARK   94  A    between atoms: _227  and  _228
REMARK   95  A    between atoms: _227  and  _230
REMARK   96  A    between atoms: _230  and  _231
REMARK   97  A    between atoms: _241  and  _243
REMARK   98  A    between atoms: _243  and  _244
REMARK   99  A    between atoms: _243  and  _246
REMARK  100  A    between atoms: _246  and  _247
REMARK  101  A    between atoms: _250  and  _252
REMARK  102  A    between atoms: _252  and  _253
REMARK  103  A    between atoms: _252  and  _255
REMARK  104  A    between atoms: _255  and  _256
REMARK  105  A    between atoms: _262  and  _264
REMARK  106  A    between atoms: _264  and  _265
REMARK  107  A    between atoms: _264  and  _267
REMARK  108  A    between atoms: _267  and  _268
REMARK  109  A    between atoms: _271  and  _273
REMARK  110  A    between atoms: _273  and  _274
REMARK  111  A    between atoms: _276  and  _278
REMARK  112  A    between atoms: _278  and  _279
REMARK  113  A    between atoms: _278  and  _281
REMARK  114  A    between atoms: _281  and  _282
REMARK  115  A    between atoms: _285  and  _287
REMARK  116  A    between atoms: _287  and  _288
REMARK  117  A    between atoms: _287  and  _290
REMARK  118  A    between atoms: _290  and  _291
REMARK  119  A    between atoms: _294  and  _296
REMARK  120  A    between atoms: _296  and  _297
REMARK  121  A    between atoms: _296  and  _299
REMARK  122  A    between atoms: _299  and  _300
REMARK  123  A    between atoms: _303  and  _305
REMARK  124  A    between atoms: _305  and  _306
REMARK  125  A    between atoms: _305  and  _308
REMARK  126  A    between atoms: _308  and  _309
REMARK  127  A    between atoms: _319  and  _321
REMARK  128  A    between atoms: _321  and  _322
REMARK  129  A    between atoms: _321  and  _324
REMARK  130  A    between atoms: _324  and  _325
REMARK  131  A    between atoms: _325  and  _326
REMARK  132  A    between atoms: _329  and  _331
REMARK  133  A    between atoms: _331  and  _332
REMARK  134  A    between atoms: _331  and  _334
REMARK  135  A    between atoms: _334  and  _335
REMARK  136  A    between atoms: _335  and  _336
REMARK  137  A    between atoms: _336  and  _337
REMARK  138  A    between atoms: _346  and  _348
REMARK  139  A    between atoms: _348  and  _349
REMARK  140  A    between atoms: _348  and  _351
REMARK  141  A    between atoms: _351  and  _352
REMARK  142  A    between atoms: _357  and  _358
REMARK  143  A    between atoms: _360  and  _362
REMARK  144  A    between atoms: _362  and  _363
REMARK  145  A    between atoms: _362  and  _365
REMARK  146  A    between atoms: _365  and  _366
REMARK  147  A    between atoms: _366  and  _367
REMARK  148  A    between atoms: _372  and  _374
REMARK  149  A    between atoms: _374  and  _375
REMARK  150  A    between atoms: _374  and  _377
REMARK  151  A    between atoms: _377  and  _378
REMARK  152  A    between atoms: _384  and  _386
REMARK  153  A    between atoms: _386  and  _387
REMARK  154  A    between atoms: _386  and  _389
REMARK  155  A    between atoms: _389  and  _390
REMARK  156  A    between atoms: _390  and  _391
REMARK  157  A    between atoms: _391  and  _392
REMARK  158  A    between atoms: _392  and  _393
REMARK  159  A    between atoms: _397  and  _399
REMARK  160  A    between atoms: _399  and  _400
REMARK  161  A    between atoms: _402  and  _404
REMARK  162  A    between atoms: _404  and  _405
REMARK  163  A    between atoms: _404  and  _407
REMARK  164  A    between atoms: _407  and  _408
REMARK  165  A    between atoms: _414  and  _415
REMARK  166  A    between atoms: _420  and  _422
REMARK  167  A    between atoms: _422  and  _423
REMARK  168  A    between atoms: _422  and  _425
REMARK  169  A    between atoms: _425  and  _426
REMARK  170  A    between atoms: _426  and  _427
REMARK  171  A    between atoms: _427  and  _428
REMARK  172  A    between atoms: _437  and  _439
REMARK  173  A    between atoms: _439  and  _440
REMARK  174  A    between atoms: _442  and  _444
REMARK  175  A    between atoms: _444  and  _445
REMARK  176  A    between atoms: _444  and  _447
REMARK  177  A    between atoms: _447  and  _448
REMARK  178  A    between atoms: _453  and  _455
REMARK  179  A    between atoms: _455  and  _456
REMARK  180  A    between atoms: _455  and  _458
REMARK  181  A    between atoms: _458  and  _459
REMARK  182  A    between atoms: _463  and  _464
REMARK  183  A    between atoms: _469  and  _471
REMARK  184  A    between atoms: _471  and  _472
REMARK  185  A    between atoms: _475  and  _477
REMARK  186  A    between atoms: _477  and  _478
REMARK  187  A    between atoms: _477  and  _480
REMARK  188  A    between atoms: _480  and  _481
REMARK  189  A    between atoms: _486  and  _488
REMARK  190  A    between atoms: _488  and  _489
REMARK  191  A    between atoms: _488  and  _491
REMARK  192  A    between atoms: _491  and  _492
REMARK  193  A    between atoms: _495  and  _497
REMARK  194  A    between atoms: _497  and  _498
REMARK  195  A    between atoms: _497  and  _500
REMARK  196  A    between atoms: _500  and  _501
REMARK  197  A    between atoms: _503  and  _505
REMARK  198  A    between atoms: _505  and  _506
REMARK  199  A    between atoms: _505  and  _508
REMARK  200  A    between atoms: _508  and  _509
REMARK  201  A    between atoms: _515  and  _517
REMARK  202  A    between atoms: _517  and  _518
REMARK  203  A    between atoms: _517  and  _520
REMARK  204  A    between atoms: _520  and  _521
REMARK  205  A    between atoms: _521  and  _522
REMARK  206  A    between atoms: _525  and  _527
REMARK  207  A    between atoms: _527  and  _528
REMARK  208  A    between atoms: _527  and  _530
REMARK  209  A    between atoms: _533  and  _535
REMARK  210  A    between atoms: _535  and  _536
REMARK  211  A    between atoms: _535  and  _538
REMARK  212  A    between atoms: _538  and  _539
REMARK  213  A    between atoms: _542  and  _544
REMARK  214  A    between atoms: _544  and  _545
REMARK  215  A    between atoms: _544  and  _547
REMARK  216  A    between atoms: _550  and  _552
REMARK  217  A    between atoms: _552  and  _553
REMARK  218  A    between atoms: _556  and  _558
REMARK  219  A    between atoms: _558  and  _559
REMARK  220  A    between atoms: _558  and  _561
REMARK  221  A    between atoms: _561  and  _562
REMARK  222  A    between atoms: _564  and  _566
REMARK  223  A    between atoms: _566  and  _567
REMARK  224  A    between atoms: _566  and  _569
REMARK  225  A    between atoms: _569  and  _570
REMARK  226  A    between atoms: _572  and  _574
REMARK  227  A    between atoms: _574  and  _575
REMARK  228  A    between atoms: _574  and  _577
REMARK  229  A    between atoms: _577  and  _578
REMARK  230  A    between atoms: _581  and  _583
REMARK  231  A    between atoms: _583  and  _584
REMARK  232  A    between atoms: _583  and  _586
REMARK  233  A    between atoms: _586  and  _587
REMARK  234  A    between atoms: _592  and  _593
REMARK  235  A    between atoms: _595  and  _597
REMARK  236  A    between atoms: _597  and  _598
REMARK  237  A    between atoms: _597  and  _600
REMARK  238  A    between atoms: _600  and  _601
REMARK  239  A    between atoms: _607  and  _609
REMARK  240  A    between atoms: _609  and  _610
REMARK  241  A    between atoms: _609  and  _612
REMARK  242  A    between atoms: _612  and  _613
REMARK  243  A    between atoms: _615  and  _617
REMARK  244  A    between atoms: _617  and  _618
REMARK  245  A    between atoms: _617  and  _620
REMARK  246  A    between atoms: _620  and  _621
REMARK  247  A    between atoms: _624  and  _626
REMARK  248  A    between atoms: _626  and  _627
REMARK  249  A    between atoms: _626  and  _629
REMARK  250  A    between atoms: _629  and  _630
REMARK  251  A    between atoms: _635  and  _636
REMARK                            x       y       z     vdW  Elec       q    Type
REMARK                         _______ _______ _______ _____ _____    ______ ____
ROOT
ATOM      1  O   HOH     1       6.110  -6.066  -5.761  0.00  0.00    +0.000 OA
ENDROOT
TORSDOF 0
REMARK  Name = ../refined-set-2016/2ihj/2ihj_pocket.pdb
REMARK  251 active torsions:
REMARK  status: ('A' for Active; 'I' for Inactive)
REMARK    1  A    between atoms: _1  and  _3
REMARK    2  A    between atoms: _3  and  _4
REMARK    3  A    between atoms: _3  and  _6
REMARK    4  A    between atoms: _6  and  _7
REMARK    5  A    between atoms: _11  and  _12
REMARK    6  A    between atoms: _17  and  _19
REMARK    7  A    between atoms: _19  and  _20
REMARK    8  A    between atoms: _23  and  _25
REMARK    9  A    between atoms: _25  and  _26
REMARK   10  A    between atoms: _25  and  _28
REMARK   11  A    between atoms: _28  and  _29
REMARK   12  A    between atoms: _31  and  _33
REMARK   13  A    between atoms: _33  and  _34
REMARK   14  A    between atoms: _33  and  _36
REMARK   15  A    between atoms: _36  and  _37
REMARK   16  A    between atoms: _41  and  _42
REMARK   17  A    between atoms: _47  and  _49
REMARK   18  A    between atoms: _49  and  _50
REMARK   19  A    between atoms: _49  and  _52
REMARK   20  A    between atoms: _52  and  _53
REMARK   21  A    between atoms: _56  and  _58
REMARK   22  A    between atoms: _58  and  _59
REMARK   23  A    between atoms: _58  and  _61
REMARK   24  A    between atoms: _61  and  _62
REMARK   25  A    between atoms: _62  and  _63
REMARK   26  A    between atoms: _63  and  _64
REMARK   27  A    between atoms: _73  and  _75
REMARK   28  A    between atoms: _75  and  _76
REMARK   29  A    between atoms: _75  and  _78
REMARK   30  A    between atoms: _78  and  _79
REMARK   31  A    between atoms: _85  and  _87
REMARK   32  A    between atoms: _87  and  _88
REMARK   33  A    between atoms: _87  and  _90
REMARK   34  A    between atoms: _90  and  _91
REMARK   35  A    between atoms: _96  and  _98
REMARK   36  A    between atoms: _98  and  _99
REMARK   37  A    between atoms: _102  and  _104
REMARK   38  A    between atoms: _104  and  _105
REMARK   39  A    between atoms: _104  and  _107
REMARK   40  A    between atoms: _107  and  _108
REMARK   41  A    between atoms: _113  and  _115
REMARK   42  A    between atoms: _115  and  _116
REMARK   43  A    between atoms: _115  and  _118
REMARK   44  A    between atoms: _118  and  _119
REMARK   45  A    between atoms: _122  and  _124
REMARK   46  A    between atoms: _124  and  _125
REMARK   47  A    between atoms: _124  and  _127
REMARK   48  A    between atoms: _127  and  _128
REMARK   49  A    between atoms: _131  and  _133
REMARK   50  A    between atoms: _133  and  _134
REMARK   51  A    between atoms: _136  and  _138
REMARK   52  A    between atoms: _138  and  _139
REMARK   53  A    between atoms: _138  and  _141
REMARK   54  A    between atoms: _141  and  _142
REMARK   55  A    between atoms: _144  and  _146
REMARK   56  A    between atoms: _146  and  _147
REMARK   57  A    between atoms: _146  and  _149
REMARK   58  A    between atoms: _149  and  _150
REMARK   59  A    between atoms: _150  and  _151
REMARK   60  A    between atoms: _153  and  _155
REMARK   61  A    between atoms: _155  and  _156
REMARK   62  A    between atoms: _155  and  _158
REMARK   63  A    between atoms: _158  and  _159
REMARK   64  A    between atoms: _159  and  _160
REMARK   65  A    between atoms: _163  and  _165
REMARK   66  A    between atoms: _165  and  _166
REMARK   67  A    between atoms: _165  and  _168
REMARK   68  A    between atoms: _168  and  _169
REMARK   69  A    between atoms: _174  and  _175
REMARK   70  A    between atoms: _177  and  _179
REMARK   71  A    between atoms: _179  and  _180
REMARK   72  A    between atoms: _179  and  _182
REMARK   73  A    between atoms: _185  and  _187
REMARK   74  A    between atoms: _187  and  _188
REMARK   75  A    between atoms: _187  and  _190
REMARK   76  A    between atoms: _190  and  _191
REMARK   77  A    between atoms: _194  and  _196
REMARK   78  A    between atoms: _196  and  _197
REMARK   79  A    between atoms: _196  and  _199
REMARK   80  A    between atoms: _199  and  _200
REMARK   81  A    between atoms: _200  and  _201
REMARK   82  A    between atoms: _201  and  _202
REMARK   83  A    between atoms: _202  and  _203
REMARK   84  A    between atoms: _207  and  _209
REMARK   85  A    between atoms: _209  and  _210
REMARK   86  A    between atoms: _209  and  _212
REMARK   87  A    between atoms: _212  and  _213
REMARK   88  A    between atoms: _216  and  _218
REMARK   89  A    between atoms: _218  and  _219
REMARK   90  A    between atoms: _218  and  _221
REMARK   91  A    between atoms: _221  and  _222
REMARK   92  A    between atoms: _222  and  _223
REMARK   93  A    between atoms: _225  and  _227
REMARK   94  A    between atoms: _227  and  _228
REMARK   95  A    between atoms: _227  and  _230
REMARK   96  A    between atoms: _230  and  _231
REMARK   97  A    between atoms: _241  and  _243
REMARK   98  A    between atoms: _243  and  _244
REMARK   99  A    between atoms: _243  and  _246
REMARK  100  A    between atoms: _246  and  _247
REMARK  101  A    between atoms: _250  and  _252
REMARK  102  A    between atoms: _252  and  _253
REMARK  103  A    between atoms: _252  and  _255
REMARK  104  A    between atoms: _255  and  _256
REMARK  105  A    between atoms: _262  and  _264
REMARK  106  A    between atoms: _264  and  _265
REMARK  107  A    between atoms: _264  and  _267
REMARK  108  A    between atoms: _267  and  _268
REMARK  109  A    between atoms: _271  and  _273
REMARK  110  A    between atoms: _273  and  _274
REMARK  111  A    between atoms: _276  and  _278
REMARK  112  A    between atoms: _278  and  _279
REMARK  113  A    between atoms: _278  and  _281
REMARK  114  A    between atoms: _281  and  _282
REMARK  115  A    between atoms: _285  and  _287
REMARK  116  A    between atoms: _287  and  _288
REMARK  117  A    between atoms: _287  and  _290
REMARK  118  A    between atoms: _290  and  _291
REMARK  119  A    between atoms: _294  and  _296
REMARK  120  A    between atoms: _296  and  _297
REMARK  121  A    between atoms: _296  and  _299
REMARK  122  A    between atoms: _299  and  _300
REMARK  123  A    between atoms: _303  and  _305
REMARK  124  A    between atoms: _305  and  _306
REMARK  125  A    between atoms: _305  and  _308
REMARK  126  A    between atoms: _308  and  _309
REMARK  127  A    between atoms: _319  and  _321
REMARK  128  A    between atoms: _321  and  _322
REMARK  129  A    between atoms: _321  and  _324
REMARK  130  A    between atoms: _324  and  _325
REMARK  131  A    between atoms: _325  and  _326
REMARK  132  A    between atoms: _329  and  _331
REMARK  133  A    between atoms: _331  and  _332
REMARK  134  A    between atoms: _331  and  _334
REMARK  135  A    between atoms: _334  and  _335
REMARK  136  A    between atoms: _335  and  _336
REMARK  137  A    between atoms: _336  and  _337
REMARK  138  A    between atoms: _346  and  _348
REMARK  139  A    between atoms: _348  and  _349
REMARK  140  A    between atoms: _348  and  _351
REMARK  141  A    between atoms: _351  and  _352
REMARK  142  A    between atoms: _357  and  _358
REMARK  143  A    between atoms: _360  and  _362
REMARK  144  A    between atoms: _362  and  _363
REMARK  145  A    between atoms: _362  and  _365
REMARK  146  A    between atoms: _365  and  _366
REMARK  147  A    between atoms: _366  and  _367
REMARK  148  A    between atoms: _372  and  _374
REMARK  149  A    between atoms: _374  and  _375
REMARK  150  A    between atoms: _374  and  _377
REMARK  151  A    between atoms: _377  and  _378
REMARK  152  A    between atoms: _384  and  _386
REMARK  153  A    between atoms: _386  and  _387
REMARK  154  A    between atoms: _386  and  _389
REMARK  155  A    between atoms: _389  and  _390
REMARK  156  A    between atoms: _390  and  _391
REMARK  157  A    between atoms: _391  and  _392
REMARK  158  A    between atoms: _392  and  _393
REMARK  159  A    between atoms: _397  and  _399
REMARK  160  A    between atoms: _399  and  _400
REMARK  161  A    between atoms: _402  and  _404
REMARK  162  A    between atoms: _404  and  _405
REMARK  163  A    between atoms: _404  and  _407
REMARK  164  A    between atoms: _407  and  _408
REMARK  165  A    between atoms: _414  and  _415
REMARK  166  A    between atoms: _420  and  _422
REMARK  167  A    between atoms: _422  and  _423
REMARK  168  A    between atoms: _422  and  _425
REMARK  169  A    between atoms: _425  and  _426
REMARK  170  A    between atoms: _426  and  _427
REMARK  171  A    between atoms: _427  and  _428
REMARK  172  A    between atoms: _437  and  _439
REMARK  173  A    between atoms: _439  and  _440
REMARK  174  A    between atoms: _442  and  _444
REMARK  175  A    between atoms: _444  and  _445
REMARK  176  A    between atoms: _444  and  _447
REMARK  177  A    between atoms: _447  and  _448
REMARK  178  A    between atoms: _453  and  _455
REMARK  179  A    between atoms: _455  and  _456
REMARK  180  A    between atoms: _455  and  _458
REMARK  181  A    between atoms: _458  and  _459
REMARK  182  A    between atoms: _463  and  _464
REMARK  183  A    between atoms: _469  and  _471
REMARK  184  A    between atoms: _471  and  _472
REMARK  185  A    between atoms: _475  and  _477
REMARK  186  A    between atoms: _477  and  _478
REMARK  187  A    between atoms: _477  and  _480
REMARK  188  A    between atoms: _480  and  _481
REMARK  189  A    between atoms: _486  and  _488
REMARK  190  A    between atoms: _488  and  _489
REMARK  191  A    between atoms: _488  and  _491
REMARK  192  A    between atoms: _491  and  _492
REMARK  193  A    between atoms: _495  and  _497
REMARK  194  A    between atoms: _497  and  _498
REMARK  195  A    between atoms: _497  and  _500
REMARK  196  A    between atoms: _500  and  _501
REMARK  197  A    between atoms: _503  and  _505
REMARK  198  A    between atoms: _505  and  _506
REMARK  199  A    between atoms: _505  and  _508
REMARK  200  A    between atoms: _508  and  _509
REMARK  201  A    between atoms: _515  and  _517
REMARK  202  A    between atoms: _517  and  _518
REMARK  203  A    between atoms: _517  and  _520
REMARK  204  A    between atoms: _520  and  _521
REMARK  205  A    between atoms: _521  and  _522
REMARK  206  A    between atoms: _525  and  _527
REMARK  207  A    between atoms: _527  and  _528
REMARK  208  A    between atoms: _527  and  _530
REMARK  209  A    between atoms: _533  and  _535
REMARK  210  A    between atoms: _535  and  _536
REMARK  211  A    between atoms: _535  and  _538
REMARK  212  A    between atoms: _538  and  _539
REMARK  213  A    between atoms: _542  and  _544
REMARK  214  A    between atoms: _544  and  _545
REMARK  215  A    between atoms: _544  and  _547
REMARK  216  A    between atoms: _550  and  _552
REMARK  217  A    between atoms: _552  and  _553
REMARK  218  A    between atoms: _556  and  _558
REMARK  219  A    between atoms: _558  and  _559
REMARK  220  A    between atoms: _558  and  _561
REMARK  221  A    between atoms: _561  and  _562
REMARK  222  A    between atoms: _564  and  _566
REMARK  223  A    between atoms: _566  and  _567
REMARK  224  A    between atoms: _566  and  _569
REMARK  225  A    between atoms: _569  and  _570
REMARK  226  A    between atoms: _572  and  _574
REMARK  227  A    between atoms: _574  and  _575
REMARK  228  A    between atoms: _574  and  _577
REMARK  229  A    between atoms: _577  and  _578
REMARK  230  A    between atoms: _581  and  _583
REMARK  231  A    between atoms: _583  and  _584
REMARK  232  A    between atoms: _583  and  _586
REMARK  233  A    between atoms: _586  and  _587
REMARK  234  A    between atoms: _592  and  _593
REMARK  235  A    between atoms: _595  and  _597
REMARK  236  A    between atoms: _597  and  _598
REMARK  237  A    between atoms: _597  and  _600
REMARK  238  A    between atoms: _600  and  _601
REMARK  239  A    between atoms: _607  and  _609
REMARK  240  A    between atoms: _609  and  _610
REMARK  241  A    between atoms: _609  and  _612
REMARK  242  A    between atoms: _612  and  _613
REMARK  243  A    between atoms: _615  and  _617
REMARK  244  A    between atoms: _617  and  _618
REMARK  245  A    between atoms: _617  and  _620
REMARK  246  A    between atoms: _620  and  _621
REMARK  247  A    between atoms: _624  and  _626
REMARK  248  A    between atoms: _626  and  _627
REMARK  249  A    between atoms: _626  and  _629
REMARK  250  A    between atoms: _629  and  _630
REMARK  251  A    between atoms: _635  and  _636
REMARK                            x       y       z     vdW  Elec       q    Type
REMARK                         _______ _______ _______ _____ _____    ______ ____
ROOT
ATOM      1  O   HOH     1      11.186  -0.016   5.975  0.00  0.00    +0.000 OA
ENDROOT
TORSDOF 0
REMARK  Name = ../refined-set-2016/2ihj/2ihj_pocket.pdb
REMARK  251 active torsions:
REMARK  status: ('A' for Active; 'I' for Inactive)
REMARK    1  A    between atoms: _1  and  _3
REMARK    2  A    between atoms: _3  and  _4
REMARK    3  A    between atoms: _3  and  _6
REMARK    4  A    between atoms: _6  and  _7
REMARK    5  A    between atoms: _11  and  _12
REMARK    6  A    between atoms: _17  and  _19
REMARK    7  A    between atoms: _19  and  _20
REMARK    8  A    between atoms: _23  and  _25
REMARK    9  A    between atoms: _25  and  _26
REMARK   10  A    between atoms: _25  and  _28
REMARK   11  A    between atoms: _28  and  _29
REMARK   12  A    between atoms: _31  and  _33
REMARK   13  A    between atoms: _33  and  _34
REMARK   14  A    between atoms: _33  and  _36
REMARK   15  A    between atoms: _36  and  _37
REMARK   16  A    between atoms: _41  and  _42
REMARK   17  A    between atoms: _47  and  _49
REMARK   18  A    between atoms: _49  and  _50
REMARK   19  A    between atoms: _49  and  _52
REMARK   20  A    between atoms: _52  and  _53
REMARK   21  A    between atoms: _56  and  _58
REMARK   22  A    between atoms: _58  and  _59
REMARK   23  A    between atoms: _58  and  _61
REMARK   24  A    between atoms: _61  and  _62
REMARK   25  A    between atoms: _62  and  _63
REMARK   26  A    between atoms: _63  and  _64
REMARK   27  A    between atoms: _73  and  _75
REMARK   28  A    between atoms: _75  and  _76
REMARK   29  A    between atoms: _75  and  _78
REMARK   30  A    between atoms: _78  and  _79
REMARK   31  A    between atoms: _85  and  _87
REMARK   32  A    between atoms: _87  and  _88
REMARK   33  A    between atoms: _87  and  _90
REMARK   34  A    between atoms: _90  and  _91
REMARK   35  A    between atoms: _96  and  _98
REMARK   36  A    between atoms: _98  and  _99
REMARK   37  A    between atoms: _102  and  _104
REMARK   38  A    between atoms: _104  and  _105
REMARK   39  A    between atoms: _104  and  _107
REMARK   40  A    between atoms: _107  and  _108
REMARK   41  A    between atoms: _113  and  _115
REMARK   42  A    between atoms: _115  and  _116
REMARK   43  A    between atoms: _115  and  _118
REMARK   44  A    between atoms: _118  and  _119
REMARK   45  A    between atoms: _122  and  _124
REMARK   46  A    between atoms: _124  and  _125
REMARK   47  A    between atoms: _124  and  _127
REMARK   48  A    between atoms: _127  and  _128
REMARK   49  A    between atoms: _131  and  _133
REMARK   50  A    between atoms: _133  and  _134
REMARK   51  A    between atoms: _136  and  _138
REMARK   52  A    between atoms: _138  and  _139
REMARK   53  A    between atoms: _138  and  _141
REMARK   54  A    between atoms: _141  and  _142
REMARK   55  A    between atoms: _144  and  _146
REMARK   56  A    between atoms: _146  and  _147
REMARK   57  A    between atoms: _146  and  _149
REMARK   58  A    between atoms: _149  and  _150
REMARK   59  A    between atoms: _150  and  _151
REMARK   60  A    between atoms: _153  and  _155
REMARK   61  A    between atoms: _155  and  _156
REMARK   62  A    between atoms: _155  and  _158
REMARK   63  A    between atoms: _158  and  _159
REMARK   64  A    between atoms: _159  and  _160
REMARK   65  A    between atoms: _163  and  _165
REMARK   66  A    between atoms: _165  and  _166
REMARK   67  A    between atoms: _165  and  _168
REMARK   68  A    between atoms: _168  and  _169
REMARK   69  A    between atoms: _174  and  _175
REMARK   70  A    between atoms: _177  and  _179
REMARK   71  A    between atoms: _179  and  _180
REMARK   72  A    between atoms: _179  and  _182
REMARK   73  A    between atoms: _185  and  _187
REMARK   74  A    between atoms: _187  and  _188
REMARK   75  A    between atoms: _187  and  _190
REMARK   76  A    between atoms: _190  and  _191
REMARK   77  A    between atoms: _194  and  _196
REMARK   78  A    between atoms: _196  and  _197
REMARK   79  A    between atoms: _196  and  _199
REMARK   80  A    between atoms: _199  and  _200
REMARK   81  A    between atoms: _200  and  _201
REMARK   82  A    between atoms: _201  and  _202
REMARK   83  A    between atoms: _202  and  _203
REMARK   84  A    between atoms: _207  and  _209
REMARK   85  A    between atoms: _209  and  _210
REMARK   86  A    between atoms: _209  and  _212
REMARK   87  A    between atoms: _212  and  _213
REMARK   88  A    between atoms: _216  and  _218
REMARK   89  A    between atoms: _218  and  _219
REMARK   90  A    between atoms: _218  and  _221
REMARK   91  A    between atoms: _221  and  _222
REMARK   92  A    between atoms: _222  and  _223
REMARK   93  A    between atoms: _225  and  _227
REMARK   94  A    between atoms: _227  and  _228
REMARK   95  A    between atoms: _227  and  _230
REMARK   96  A    between atoms: _230  and  _231
REMARK   97  A    between atoms: _241  and  _243
REMARK   98  A    between atoms: _243  and  _244
REMARK   99  A    between atoms: _243  and  _246
REMARK  100  A    between atoms: _246  and  _247
REMARK  101  A    between atoms: _250  and  _252
REMARK  102  A    between atoms: _252  and  _253
REMARK  103  A    between atoms: _252  and  _255
REMARK  104  A    between atoms: _255  and  _256
REMARK  105  A    between atoms: _262  and  _264
REMARK  106  A    between atoms: _264  and  _265
REMARK  107  A    between atoms: _264  and  _267
REMARK  108  A    between atoms: _267  and  _268
REMARK  109  A    between atoms: _271  and  _273
REMARK  110  A    between atoms: _273  and  _274
REMARK  111  A    between atoms: _276  and  _278
REMARK  112  A    between atoms: _278  and  _279
REMARK  113  A    between atoms: _278  and  _281
REMARK  114  A    between atoms: _281  and  _282
REMARK  115  A    between atoms: _285  and  _287
REMARK  116  A    between atoms: _287  and  _288
REMARK  117  A    between atoms: _287  and  _290
REMARK  118  A    between atoms: _290  and  _291
REMARK  119  A    between atoms: _294  and  _296
REMARK  120  A    between atoms: _296  and  _297
REMARK  121  A    between atoms: _296  and  _299
REMARK  122  A    between atoms: _299  and  _300
REMARK  123  A    between atoms: _303  and  _305
REMARK  124  A    between atoms: _305  and  _306
REMARK  125  A    between atoms: _305  and  _308
REMARK  126  A    between atoms: _308  and  _309
REMARK  127  A    between atoms: _319  and  _321
REMARK  128  A    between atoms: _321  and  _322
REMARK  129  A    between atoms: _321  and  _324
REMARK  130  A    between atoms: _324  and  _325
REMARK  131  A    between atoms: _325  and  _326
REMARK  132  A    between atoms: _329  and  _331
REMARK  133  A    between atoms: _331  and  _332
REMARK  134  A    between atoms: _331  and  _334
REMARK  135  A    between atoms: _334  and  _335
REMARK  136  A    between atoms: _335  and  _336
REMARK  137  A    between atoms: _336  and  _337
REMARK  138  A    between atoms: _346  and  _348
REMARK  139  A    between atoms: _348  and  _349
REMARK  140  A    between atoms: _348  and  _351
REMARK  141  A    between atoms: _351  and  _352
REMARK  142  A    between atoms: _357  and  _358
REMARK  143  A    between atoms: _360  and  _362
REMARK  144  A    between atoms: _362  and  _363
REMARK  145  A    between atoms: _362  and  _365
REMARK  146  A    between atoms: _365  and  _366
REMARK  147  A    between atoms: _366  and  _367
REMARK  148  A    between atoms: _372  and  _374
REMARK  149  A    between atoms: _374  and  _375
REMARK  150  A    between atoms: _374  and  _377
REMARK  151  A    between atoms: _377  and  _378
REMARK  152  A    between atoms: _384  and  _386
REMARK  153  A    between atoms: _386  and  _387
REMARK  154  A    between atoms: _386  and  _389
REMARK  155  A    between atoms: _389  and  _390
REMARK  156  A    between atoms: _390  and  _391
REMARK  157  A    between atoms: _391  and  _392
REMARK  158  A    between atoms: _392  and  _393
REMARK  159  A    between atoms: _397  and  _399
REMARK  160  A    between atoms: _399  and  _400
REMARK  161  A    between atoms: _402  and  _404
REMARK  162  A    between atoms: _404  and  _405
REMARK  163  A    between atoms: _404  and  _407
REMARK  164  A    between atoms: _407  and  _408
REMARK  165  A    between atoms: _414  and  _415
REMARK  166  A    between atoms: _420  and  _422
REMARK  167  A    between atoms: _422  and  _423
REMARK  168  A    between atoms: _422  and  _425
REMARK  169  A    between atoms: _425  and  _426
REMARK  170  A    between atoms: _426  and  _427
REMARK  171  A    between atoms: _427  and  _428
REMARK  172  A    between atoms: _437  and  _439
REMARK  173  A    between atoms: _439  and  _440
REMARK  174  A    between atoms: _442  and  _444
REMARK  175  A    between atoms: _444  and  _445
REMARK  176  A    between atoms: _444  and  _447
REMARK  177  A    between atoms: _447  and  _448
REMARK  178  A    between atoms: _453  and  _455
REMARK  179  A    between atoms: _455  and  _456
REMARK  180  A    between atoms: _455  and  _458
REMARK  181  A    between atoms: _458  and  _459
REMARK  182  A    between atoms: _463  and  _464
REMARK  183  A    between atoms: _469  and  _471
REMARK  184  A    between atoms: _471  and  _472
REMARK  185  A    between atoms: _475  and  _477
REMARK  186  A    between atoms: _477  and  _478
REMARK  187  A    between atoms: _477  and  _480
REMARK  188  A    between atoms: _480  and  _481
REMARK  189  A    between atoms: _486  and  _488
REMARK  190  A    between atoms: _488  and  _489
REMARK  191  A    between atoms: _488  and  _491
REMARK  192  A    between atoms: _491  and  _492
REMARK  193  A    between atoms: _495  and  _497
REMARK  194  A    between atoms: _497  and  _498
REMARK  195  A    between atoms: _497  and  _500
REMARK  196  A    between atoms: _500  and  _501
REMARK  197  A    between atoms: _503  and  _505
REMARK  198  A    between atoms: _505  and  _506
REMARK  199  A    between atoms: _505  and  _508
REMARK  200  A    between atoms: _508  and  _509
REMARK  201  A    between atoms: _515  and  _517
REMARK  202  A    between atoms: _517  and  _518
REMARK  203  A    between atoms: _517  and  _520
REMARK  204  A    between atoms: _520  and  _521
REMARK  205  A    between atoms: _521  and  _522
REMARK  206  A    between atoms: _525  and  _527
REMARK  207  A    between atoms: _527  and  _528
REMARK  208  A    between atoms: _527  and  _530
REMARK  209  A    between atoms: _533  and  _535
REMARK  210  A    between atoms: _535  and  _536
REMARK  211  A    between atoms: _535  and  _538
REMARK  212  A    between atoms: _538  and  _539
REMARK  213  A    between atoms: _542  and  _544
REMARK  214  A    between atoms: _544  and  _545
REMARK  215  A    between atoms: _544  and  _547
REMARK  216  A    between atoms: _550  and  _552
REMARK  217  A    between atoms: _552  and  _553
REMARK  218  A    between atoms: _556  and  _558
REMARK  219  A    between atoms: _558  and  _559
REMARK  220  A    between atoms: _558  and  _561
REMARK  221  A    between atoms: _561  and  _562
REMARK  222  A    between atoms: _564  and  _566
REMARK  223  A    between atoms: _566  and  _567
REMARK  224  A    between atoms: _566  and  _569
REMARK  225  A    between atoms: _569  and  _570
REMARK  226  A    between atoms: _572  and  _574
REMARK  227  A    between atoms: _574  and  _575
REMARK  228  A    between atoms: _574  and  _577
REMARK  229  A    between atoms: _577  and  _578
REMARK  230  A    between atoms: _581  and  _583
REMARK  231  A    between atoms: _583  and  _584
REMARK  232  A    between atoms: _583  and  _586
REMARK  233  A    between atoms: _586  and  _587
REMARK  234  A    between atoms: _592  and  _593
REMARK  235  A    between atoms: _595  and  _597
REMARK  236  A    between atoms: _597  and  _598
REMARK  237  A    between atoms: _597  and  _600
REMARK  238  A    between atoms: _600  and  _601
REMARK  239  A    between atoms: _607  and  _609
REMARK  240  A    between atoms: _609  and  _610
REMARK  241  A    between atoms: _609  and  _612
REMARK  242  A    between atoms: _612  and  _613
REMARK  243  A    between atoms: _615  and  _617
REMARK  244  A    between atoms: _617  and  _618
REMARK  245  A    between atoms: _617  and  _620
REMARK  246  A    between atoms: _620  and  _621
REMARK  247  A    between atoms: _624  and  _626
REMARK  248  A    between atoms: _626  and  _627
REMARK  249  A    between atoms: _626  and  _629
REMARK  250  A    between atoms: _629  and  _630
REMARK  251  A    between atoms: _635  and  _636
REMARK                            x       y       z     vdW  Elec       q    Type
REMARK                         _______ _______ _______ _____ _____    ______ ____
ROOT
ATOM      1  O   HOH     1      19.259  -3.314   3.501  0.00  0.00    +0.000 OA
ENDROOT
TORSDOF 0
REMARK  Name = ../refined-set-2016/2ihj/2ihj_pocket.pdb
REMARK  251 active torsions:
REMARK  status: ('A' for Active; 'I' for Inactive)
REMARK    1  A    between atoms: _1  and  _3
REMARK    2  A    between atoms: _3  and  _4
REMARK    3  A    between atoms: _3  and  _6
REMARK    4  A    between atoms: _6  and  _7
REMARK    5  A    between atoms: _11  and  _12
REMARK    6  A    between atoms: _17  and  _19
REMARK    7  A    between atoms: _19  and  _20
REMARK    8  A    between atoms: _23  and  _25
REMARK    9  A    between atoms: _25  and  _26
REMARK   10  A    between atoms: _25  and  _28
REMARK   11  A    between atoms: _28  and  _29
REMARK   12  A    between atoms: _31  and  _33
REMARK   13  A    between atoms: _33  and  _34
REMARK   14  A    between atoms: _33  and  _36
REMARK   15  A    between atoms: _36  and  _37
REMARK   16  A    between atoms: _41  and  _42
REMARK   17  A    between atoms: _47  and  _49
REMARK   18  A    between atoms: _49  and  _50
REMARK   19  A    between atoms: _49  and  _52
REMARK   20  A    between atoms: _52  and  _53
REMARK   21  A    between atoms: _56  and  _58
REMARK   22  A    between atoms: _58  and  _59
REMARK   23  A    between atoms: _58  and  _61
REMARK   24  A    between atoms: _61  and  _62
REMARK   25  A    between atoms: _62  and  _63
REMARK   26  A    between atoms: _63  and  _64
REMARK   27  A    between atoms: _73  and  _75
REMARK   28  A    between atoms: _75  and  _76
REMARK   29  A    between atoms: _75  and  _78
REMARK   30  A    between atoms: _78  and  _79
REMARK   31  A    between atoms: _85  and  _87
REMARK   32  A    between atoms: _87  and  _88
REMARK   33  A    between atoms: _87  and  _90
REMARK   34  A    between atoms: _90  and  _91
REMARK   35  A    between atoms: _96  and  _98
REMARK   36  A    between atoms: _98  and  _99
REMARK   37  A    between atoms: _102  and  _104
REMARK   38  A    between atoms: _104  and  _105
REMARK   39  A    between atoms: _104  and  _107
REMARK   40  A    between atoms: _107  and  _108
REMARK   41  A    between atoms: _113  and  _115
REMARK   42  A    between atoms: _115  and  _116
REMARK   43  A    between atoms: _115  and  _118
REMARK   44  A    between atoms: _118  and  _119
REMARK   45  A    between atoms: _122  and  _124
REMARK   46  A    between atoms: _124  and  _125
REMARK   47  A    between atoms: _124  and  _127
REMARK   48  A    between atoms: _127  and  _128
REMARK   49  A    between atoms: _131  and  _133
REMARK   50  A    between atoms: _133  and  _134
REMARK   51  A    between atoms: _136  and  _138
REMARK   52  A    between atoms: _138  and  _139
REMARK   53  A    between atoms: _138  and  _141
REMARK   54  A    between atoms: _141  and  _142
REMARK   55  A    between atoms: _144  and  _146
REMARK   56  A    between atoms: _146  and  _147
REMARK   57  A    between atoms: _146  and  _149
REMARK   58  A    between atoms: _149  and  _150
REMARK   59  A    between atoms: _150  and  _151
REMARK   60  A    between atoms: _153  and  _155
REMARK   61  A    between atoms: _155  and  _156
REMARK   62  A    between atoms: _155  and  _158
REMARK   63  A    between atoms: _158  and  _159
REMARK   64  A    between atoms: _159  and  _160
REMARK   65  A    between atoms: _163  and  _165
REMARK   66  A    between atoms: _165  and  _166
REMARK   67  A    between atoms: _165  and  _168
REMARK   68  A    between atoms: _168  and  _169
REMARK   69  A    between atoms: _174  and  _175
REMARK   70  A    between atoms: _177  and  _179
REMARK   71  A    between atoms: _179  and  _180
REMARK   72  A    between atoms: _179  and  _182
REMARK   73  A    between atoms: _185  and  _187
REMARK   74  A    between atoms: _187  and  _188
REMARK   75  A    between atoms: _187  and  _190
REMARK   76  A    between atoms: _190  and  _191
REMARK   77  A    between atoms: _194  and  _196
REMARK   78  A    between atoms: _196  and  _197
REMARK   79  A    between atoms: _196  and  _199
REMARK   80  A    between atoms: _199  and  _200
REMARK   81  A    between atoms: _200  and  _201
REMARK   82  A    between atoms: _201  and  _202
REMARK   83  A    between atoms: _202  and  _203
REMARK   84  A    between atoms: _207  and  _209
REMARK   85  A    between atoms: _209  and  _210
REMARK   86  A    between atoms: _209  and  _212
REMARK   87  A    between atoms: _212  and  _213
REMARK   88  A    between atoms: _216  and  _218
REMARK   89  A    between atoms: _218  and  _219
REMARK   90  A    between atoms: _218  and  _221
REMARK   91  A    between atoms: _221  and  _222
REMARK   92  A    between atoms: _222  and  _223
REMARK   93  A    between atoms: _225  and  _227
REMARK   94  A    between atoms: _227  and  _228
REMARK   95  A    between atoms: _227  and  _230
REMARK   96  A    between atoms: _230  and  _231
REMARK   97  A    between atoms: _241  and  _243
REMARK   98  A    between atoms: _243  and  _244
REMARK   99  A    between atoms: _243  and  _246
REMARK  100  A    between atoms: _246  and  _247
REMARK  101  A    between atoms: _250  and  _252
REMARK  102  A    between atoms: _252  and  _253
REMARK  103  A    between atoms: _252  and  _255
REMARK  104  A    between atoms: _255  and  _256
REMARK  105  A    between atoms: _262  and  _264
REMARK  106  A    between atoms: _264  and  _265
REMARK  107  A    between atoms: _264  and  _267
REMARK  108  A    between atoms: _267  and  _268
REMARK  109  A    between atoms: _271  and  _273
REMARK  110  A    between atoms: _273  and  _274
REMARK  111  A    between atoms: _276  and  _278
REMARK  112  A    between atoms: _278  and  _279
REMARK  113  A    between atoms: _278  and  _281
REMARK  114  A    between atoms: _281  and  _282
REMARK  115  A    between atoms: _285  and  _287
REMARK  116  A    between atoms: _287  and  _288
REMARK  117  A    between atoms: _287  and  _290
REMARK  118  A    between atoms: _290  and  _291
REMARK  119  A    between atoms: _294  and  _296
REMARK  120  A    between atoms: _296  and  _297
REMARK  121  A    between atoms: _296  and  _299
REMARK  122  A    between atoms: _299  and  _300
REMARK  123  A    between atoms: _303  and  _305
REMARK  124  A    between atoms: _305  and  _306
REMARK  125  A    between atoms: _305  and  _308
REMARK  126  A    between atoms: _308  and  _309
REMARK  127  A    between atoms: _319  and  _321
REMARK  128  A    between atoms: _321  and  _322
REMARK  129  A    between atoms: _321  and  _324
REMARK  130  A    between atoms: _324  and  _325
REMARK  131  A    between atoms: _325  and  _326
REMARK  132  A    between atoms: _329  and  _331
REMARK  133  A    between atoms: _331  and  _332
REMARK  134  A    between atoms: _331  and  _334
REMARK  135  A    between atoms: _334  and  _335
REMARK  136  A    between atoms: _335  and  _336
REMARK  137  A    between atoms: _336  and  _337
REMARK  138  A    between atoms: _346  and  _348
REMARK  139  A    between atoms: _348  and  _349
REMARK  140  A    between atoms: _348  and  _351
REMARK  141  A    between atoms: _351  and  _352
REMARK  142  A    between atoms: _357  and  _358
REMARK  143  A    between atoms: _360  and  _362
REMARK  144  A    between atoms: _362  and  _363
REMARK  145  A    between atoms: _362  and  _365
REMARK  146  A    between atoms: _365  and  _366
REMARK  147  A    between atoms: _366  and  _367
REMARK  148  A    between atoms: _372  and  _374
REMARK  149  A    between atoms: _374  and  _375
REMARK  150  A    between atoms: _374  and  _377
REMARK  151  A    between atoms: _377  and  _378
REMARK  152  A    between atoms: _384  and  _386
REMARK  153  A    between atoms: _386  and  _387
REMARK  154  A    between atoms: _386  and  _389
REMARK  155  A    between atoms: _389  and  _390
REMARK  156  A    between atoms: _390  and  _391
REMARK  157  A    between atoms: _391  and  _392
REMARK  158  A    between atoms: _392  and  _393
REMARK  159  A    between atoms: _397  and  _399
REMARK  160  A    between atoms: _399  and  _400
REMARK  161  A    between atoms: _402  and  _404
REMARK  162  A    between atoms: _404  and  _405
REMARK  163  A    between atoms: _404  and  _407
REMARK  164  A    between atoms: _407  and  _408
REMARK  165  A    between atoms: _414  and  _415
REMARK  166  A    between atoms: _420  and  _422
REMARK  167  A    between atoms: _422  and  _423
REMARK  168  A    between atoms: _422  and  _425
REMARK  169  A    between atoms: _425  and  _426
REMARK  170  A    between atoms: _426  and  _427
REMARK  171  A    between atoms: _427  and  _428
REMARK  172  A    between atoms: _437  and  _439
REMARK  173  A    between atoms: _439  and  _440
REMARK  174  A    between atoms: _442  and  _444
REMARK  175  A    between atoms: _444  and  _445
REMARK  176  A    between atoms: _444  and  _447
REMARK  177  A    between atoms: _447  and  _448
REMARK  178  A    between atoms: _453  and  _455
REMARK  179  A    between atoms: _455  and  _456
REMARK  180  A    between atoms: _455  and  _458
REMARK  181  A    between atoms: _458  and  _459
REMARK  182  A    between atoms: _463  and  _464
REMARK  183  A    between atoms: _469  and  _471
REMARK  184  A    between atoms: _471  and  _472
REMARK  185  A    between atoms: _475  and  _477
REMARK  186  A    between atoms: _477  and  _478
REMARK  187  A    between atoms: _477  and  _480
REMARK  188  A    between atoms: _480  and  _481
REMARK  189  A    between atoms: _486  and  _488
REMARK  190  A    between atoms: _488  and  _489
REMARK  191  A    between atoms: _488  and  _491
REMARK  192  A    between atoms: _491  and  _492
REMARK  193  A    between atoms: _495  and  _497
REMARK  194  A    between atoms: _497  and  _498
REMARK  195  A    between atoms: _497  and  _500
REMARK  196  A    between atoms: _500  and  _501
REMARK  197  A    between atoms: _503  and  _505
REMARK  198  A    between atoms: _505  and  _506
REMARK  199  A    between atoms: _505  and  _508
REMARK  200  A    between atoms: _508  and  _509
REMARK  201  A    between atoms: _515  and  _517
REMARK  202  A    between atoms: _517  and  _518
REMARK  203  A    between atoms: _517  and  _520
REMARK  204  A    between atoms: _520  and  _521
REMARK  205  A    between atoms: _521  and  _522
REMARK  206  A    between atoms: _525  and  _527
REMARK  207  A    between atoms: _527  and  _528
REMARK  208  A    between atoms: _527  and  _530
REMARK  209  A    between atoms: _533  and  _535
REMARK  210  A    between atoms: _535  and  _536
REMARK  211  A    between atoms: _535  and  _538
REMARK  212  A    between atoms: _538  and  _539
REMARK  213  A    between atoms: _542  and  _544
REMARK  214  A    between atoms: _544  and  _545
REMARK  215  A    between atoms: _544  and  _547
REMARK  216  A    between atoms: _550  and  _552
REMARK  217  A    between atoms: _552  and  _553
REMARK  218  A    between atoms: _556  and  _558
REMARK  219  A    between atoms: _558  and  _559
REMARK  220  A    between atoms: _558  and  _561
REMARK  221  A    between atoms: _561  and  _562
REMARK  222  A    between atoms: _564  and  _566
REMARK  223  A    between atoms: _566  and  _567
REMARK  224  A    between atoms: _566  and  _569
REMARK  225  A    between atoms: _569  and  _570
REMARK  226  A    between atoms: _572  and  _574
REMARK  227  A    between atoms: _574  and  _575
REMARK  228  A    between atoms: _574  and  _577
REMARK  229  A    between atoms: _577  and  _578
REMARK  230  A    between atoms: _581  and  _583
REMARK  231  A    between atoms: _583  and  _584
REMARK  232  A    between atoms: _583  and  _586
REMARK  233  A    between atoms: _586  and  _587
REMARK  234  A    between atoms: _592  and  _593
REMARK  235  A    between atoms: _595  and  _597
REMARK  236  A    between atoms: _597  and  _598
REMARK  237  A    between atoms: _597  and  _600
REMARK  238  A    between atoms: _600  and  _601
REMARK  239  A    between atoms: _607  and  _609
REMARK  240  A    between atoms: _609  and  _610
REMARK  241  A    between atoms: _609  and  _612
REMARK  242  A    between atoms: _612  and  _613
REMARK  243  A    between atoms: _615  and  _617
REMARK  244  A    between atoms: _617  and  _618
REMARK  245  A    between atoms: _617  and  _620
REMARK  246  A    between atoms: _620  and  _621
REMARK  247  A    between atoms: _624  and  _626
REMARK  248  A    between atoms: _626  and  _627
REMARK  249  A    between atoms: _626  and  _629
REMARK  250  A    between atoms: _629  and  _630
REMARK  251  A    between atoms: _635  and  _636
REMARK                            x       y       z     vdW  Elec       q    Type
REMARK                         _______ _______ _______ _____ _____    ______ ____
ROOT
ATOM      1  O   HOH     1      10.454 -10.483   8.003  0.00  0.00    +0.000 OA
ENDROOT
TORSDOF 0
REMARK  Name = ../refined-set-2016/2ihj/2ihj_pocket.pdb
REMARK  251 active torsions:
REMARK  status: ('A' for Active; 'I' for Inactive)
REMARK    1  A    between atoms: _1  and  _3
REMARK    2  A    between atoms: _3  and  _4
REMARK    3  A    between atoms: _3  and  _6
REMARK    4  A    between atoms: _6  and  _7
REMARK    5  A    between atoms: _11  and  _12
REMARK    6  A    between atoms: _17  and  _19
REMARK    7  A    between atoms: _19  and  _20
REMARK    8  A    between atoms: _23  and  _25
REMARK    9  A    between atoms: _25  and  _26
REMARK   10  A    between atoms: _25  and  _28
REMARK   11  A    between atoms: _28  and  _29
REMARK   12  A    between atoms: _31  and  _33
REMARK   13  A    between atoms: _33  and  _34
REMARK   14  A    between atoms: _33  and  _36
REMARK   15  A    between atoms: _36  and  _37
REMARK   16  A    between atoms: _41  and  _42
REMARK   17  A    between atoms: _47  and  _49
REMARK   18  A    between atoms: _49  and  _50
REMARK   19  A    between atoms: _49  and  _52
REMARK   20  A    between atoms: _52  and  _53
REMARK   21  A    between atoms: _56  and  _58
REMARK   22  A    between atoms: _58  and  _59
REMARK   23  A    between atoms: _58  and  _61
REMARK   24  A    between atoms: _61  and  _62
REMARK   25  A    between atoms: _62  and  _63
REMARK   26  A    between atoms: _63  and  _64
REMARK   27  A    between atoms: _73  and  _75
REMARK   28  A    between atoms: _75  and  _76
REMARK   29  A    between atoms: _75  and  _78
REMARK   30  A    between atoms: _78  and  _79
REMARK   31  A    between atoms: _85  and  _87
REMARK   32  A    between atoms: _87  and  _88
REMARK   33  A    between atoms: _87  and  _90
REMARK   34  A    between atoms: _90  and  _91
REMARK   35  A    between atoms: _96  and  _98
REMARK   36  A    between atoms: _98  and  _99
REMARK   37  A    between atoms: _102  and  _104
REMARK   38  A    between atoms: _104  and  _105
REMARK   39  A    between atoms: _104  and  _107
REMARK   40  A    between atoms: _107  and  _108
REMARK   41  A    between atoms: _113  and  _115
REMARK   42  A    between atoms: _115  and  _116
REMARK   43  A    between atoms: _115  and  _118
REMARK   44  A    between atoms: _118  and  _119
REMARK   45  A    between atoms: _122  and  _124
REMARK   46  A    between atoms: _124  and  _125
REMARK   47  A    between atoms: _124  and  _127
REMARK   48  A    between atoms: _127  and  _128
REMARK   49  A    between atoms: _131  and  _133
REMARK   50  A    between atoms: _133  and  _134
REMARK   51  A    between atoms: _136  and  _138
REMARK   52  A    between atoms: _138  and  _139
REMARK   53  A    between atoms: _138  and  _141
REMARK   54  A    between atoms: _141  and  _142
REMARK   55  A    between atoms: _144  and  _146
REMARK   56  A    between atoms: _146  and  _147
REMARK   57  A    between atoms: _146  and  _149
REMARK   58  A    between atoms: _149  and  _150
REMARK   59  A    between atoms: _150  and  _151
REMARK   60  A    between atoms: _153  and  _155
REMARK   61  A    between atoms: _155  and  _156
REMARK   62  A    between atoms: _155  and  _158
REMARK   63  A    between atoms: _158  and  _159
REMARK   64  A    between atoms: _159  and  _160
REMARK   65  A    between atoms: _163  and  _165
REMARK   66  A    between atoms: _165  and  _166
REMARK   67  A    between atoms: _165  and  _168
REMARK   68  A    between atoms: _168  and  _169
REMARK   69  A    between atoms: _174  and  _175
REMARK   70  A    between atoms: _177  and  _179
REMARK   71  A    between atoms: _179  and  _180
REMARK   72  A    between atoms: _179  and  _182
REMARK   73  A    between atoms: _185  and  _187
REMARK   74  A    between atoms: _187  and  _188
REMARK   75  A    between atoms: _187  and  _190
REMARK   76  A    between atoms: _190  and  _191
REMARK   77  A    between atoms: _194  and  _196
REMARK   78  A    between atoms: _196  and  _197
REMARK   79  A    between atoms: _196  and  _199
REMARK   80  A    between atoms: _199  and  _200
REMARK   81  A    between atoms: _200  and  _201
REMARK   82  A    between atoms: _201  and  _202
REMARK   83  A    between atoms: _202  and  _203
REMARK   84  A    between atoms: _207  and  _209
REMARK   85  A    between atoms: _209  and  _210
REMARK   86  A    between atoms: _209  and  _212
REMARK   87  A    between atoms: _212  and  _213
REMARK   88  A    between atoms: _216  and  _218
REMARK   89  A    between atoms: _218  and  _219
REMARK   90  A    between atoms: _218  and  _221
REMARK   91  A    between atoms: _221  and  _222
REMARK   92  A    between atoms: _222  and  _223
REMARK   93  A    between atoms: _225  and  _227
REMARK   94  A    between atoms: _227  and  _228
REMARK   95  A    between atoms: _227  and  _230
REMARK   96  A    between atoms: _230  and  _231
REMARK   97  A    between atoms: _241  and  _243
REMARK   98  A    between atoms: _243  and  _244
REMARK   99  A    between atoms: _243  and  _246
REMARK  100  A    between atoms: _246  and  _247
REMARK  101  A    between atoms: _250  and  _252
REMARK  102  A    between atoms: _252  and  _253
REMARK  103  A    between atoms: _252  and  _255
REMARK  104  A    between atoms: _255  and  _256
REMARK  105  A    between atoms: _262  and  _264
REMARK  106  A    between atoms: _264  and  _265
REMARK  107  A    between atoms: _264  and  _267
REMARK  108  A    between atoms: _267  and  _268
REMARK  109  A    between atoms: _271  and  _273
REMARK  110  A    between atoms: _273  and  _274
REMARK  111  A    between atoms: _276  and  _278
REMARK  112  A    between atoms: _278  and  _279
REMARK  113  A    between atoms: _278  and  _281
REMARK  114  A    between atoms: _281  and  _282
REMARK  115  A    between atoms: _285  and  _287
REMARK  116  A    between atoms: _287  and  _288
REMARK  117  A    between atoms: _287  and  _290
REMARK  118  A    between atoms: _290  and  _291
REMARK  119  A    between atoms: _294  and  _296
REMARK  120  A    between atoms: _296  and  _297
REMARK  121  A    between atoms: _296  and  _299
REMARK  122  A    between atoms: _299  and  _300
REMARK  123  A    between atoms: _303  and  _305
REMARK  124  A    between atoms: _305  and  _306
REMARK  125  A    between atoms: _305  and  _308
REMARK  126  A    between atoms: _308  and  _309
REMARK  127  A    between atoms: _319  and  _321
REMARK  128  A    between atoms: _321  and  _322
REMARK  129  A    between atoms: _321  and  _324
REMARK  130  A    between atoms: _324  and  _325
REMARK  131  A    between atoms: _325  and  _326
REMARK  132  A    between atoms: _329  and  _331
REMARK  133  A    between atoms: _331  and  _332
REMARK  134  A    between atoms: _331  and  _334
REMARK  135  A    between atoms: _334  and  _335
REMARK  136  A    between atoms: _335  and  _336
REMARK  137  A    between atoms: _336  and  _337
REMARK  138  A    between atoms: _346  and  _348
REMARK  139  A    between atoms: _348  and  _349
REMARK  140  A    between atoms: _348  and  _351
REMARK  141  A    between atoms: _351  and  _352
REMARK  142  A    between atoms: _357  and  _358
REMARK  143  A    between atoms: _360  and  _362
REMARK  144  A    between atoms: _362  and  _363
REMARK  145  A    between atoms: _362  and  _365
REMARK  146  A    between atoms: _365  and  _366
REMARK  147  A    between atoms: _366  and  _367
REMARK  148  A    between atoms: _372  and  _374
REMARK  149  A    between atoms: _374  and  _375
REMARK  150  A    between atoms: _374  and  _377
REMARK  151  A    between atoms: _377  and  _378
REMARK  152  A    between atoms: _384  and  _386
REMARK  153  A    between atoms: _386  and  _387
REMARK  154  A    between atoms: _386  and  _389
REMARK  155  A    between atoms: _389  and  _390
REMARK  156  A    between atoms: _390  and  _391
REMARK  157  A    between atoms: _391  and  _392
REMARK  158  A    between atoms: _392  and  _393
REMARK  159  A    between atoms: _397  and  _399
REMARK  160  A    between atoms: _399  and  _400
REMARK  161  A    between atoms: _402  and  _404
REMARK  162  A    between atoms: _404  and  _405
REMARK  163  A    between atoms: _404  and  _407
REMARK  164  A    between atoms: _407  and  _408
REMARK  165  A    between atoms: _414  and  _415
REMARK  166  A    between atoms: _420  and  _422
REMARK  167  A    between atoms: _422  and  _423
REMARK  168  A    between atoms: _422  and  _425
REMARK  169  A    between atoms: _425  and  _426
REMARK  170  A    between atoms: _426  and  _427
REMARK  171  A    between atoms: _427  and  _428
REMARK  172  A    between atoms: _437  and  _439
REMARK  173  A    between atoms: _439  and  _440
REMARK  174  A    between atoms: _442  and  _444
REMARK  175  A    between atoms: _444  and  _445
REMARK  176  A    between atoms: _444  and  _447
REMARK  177  A    between atoms: _447  and  _448
REMARK  178  A    between atoms: _453  and  _455
REMARK  179  A    between atoms: _455  and  _456
REMARK  180  A    between atoms: _455  and  _458
REMARK  181  A    between atoms: _458  and  _459
REMARK  182  A    between atoms: _463  and  _464
REMARK  183  A    between atoms: _469  and  _471
REMARK  184  A    between atoms: _471  and  _472
REMARK  185  A    between atoms: _475  and  _477
REMARK  186  A    between atoms: _477  and  _478
REMARK  187  A    between atoms: _477  and  _480
REMARK  188  A    between atoms: _480  and  _481
REMARK  189  A    between atoms: _486  and  _488
REMARK  190  A    between atoms: _488  and  _489
REMARK  191  A    between atoms: _488  and  _491
REMARK  192  A    between atoms: _491  and  _492
REMARK  193  A    between atoms: _495  and  _497
REMARK  194  A    between atoms: _497  and  _498
REMARK  195  A    between atoms: _497  and  _500
REMARK  196  A    between atoms: _500  and  _501
REMARK  197  A    between atoms: _503  and  _505
REMARK  198  A    between atoms: _505  and  _506
REMARK  199  A    between atoms: _505  and  _508
REMARK  200  A    between atoms: _508  and  _509
REMARK  201  A    between atoms: _515  and  _517
REMARK  202  A    between atoms: _517  and  _518
REMARK  203  A    between atoms: _517  and  _520
REMARK  204  A    between atoms: _520  and  _521
REMARK  205  A    between atoms: _521  and  _522
REMARK  206  A    between atoms: _525  and  _527
REMARK  207  A    between atoms: _527  and  _528
REMARK  208  A    between atoms: _527  and  _530
REMARK  209  A    between atoms: _533  and  _535
REMARK  210  A    between atoms: _535  and  _536
REMARK  211  A    between atoms: _535  and  _538
REMARK  212  A    between atoms: _538  and  _539
REMARK  213  A    between atoms: _542  and  _544
REMARK  214  A    between atoms: _544  and  _545
REMARK  215  A    between atoms: _544  and  _547
REMARK  216  A    between atoms: _550  and  _552
REMARK  217  A    between atoms: _552  and  _553
REMARK  218  A    between atoms: _556  and  _558
REMARK  219  A    between atoms: _558  and  _559
REMARK  220  A    between atoms: _558  and  _561
REMARK  221  A    between atoms: _561  and  _562
REMARK  222  A    between atoms: _564  and  _566
REMARK  223  A    between atoms: _566  and  _567
REMARK  224  A    between atoms: _566  and  _569
REMARK  225  A    between atoms: _569  and  _570
REMARK  226  A    between atoms: _572  and  _574
REMARK  227  A    between atoms: _574  and  _575
REMARK  228  A    between atoms: _574  and  _577
REMARK  229  A    between atoms: _577  and  _578
REMARK  230  A    between atoms: _581  and  _583
REMARK  231  A    between atoms: _583  and  _584
REMARK  232  A    between atoms: _583  and  _586
REMARK  233  A    between atoms: _586  and  _587
REMARK  234  A    between atoms: _592  and  _593
REMARK  235  A    between atoms: _595  and  _597
REMARK  236  A    between atoms: _597  and  _598
REMARK  237  A    between atoms: _597  and  _600
REMARK  238  A    between atoms: _600  and  _601
REMARK  239  A    between atoms: _607  and  _609
REMARK  240  A    between atoms: _609  and  _610
REMARK  241  A    between atoms: _609  and  _612
REMARK  242  A    between atoms: _612  and  _613
REMARK  243  A    between atoms: _615  and  _617
REMARK  244  A    between atoms: _617  and  _618
REMARK  245  A    between atoms: _617  and  _620
REMARK  246  A    between atoms: _620  and  _621
REMARK  247  A    between atoms: _624  and  _626
REMARK  248  A    between atoms: _626  and  _627
REMARK  249  A    between atoms: _626  and  _629
REMARK  250  A    between atoms: _629  and  _630
REMARK  251  A    between atoms: _635  and  _636
REMARK                            x       y       z     vdW  Elec       q    Type
REMARK                         _______ _______ _______ _____ _____    ______ ____
ROOT
ATOM      1  O   HOH     1      12.964  -4.138  -5.423  0.00  0.00    +0.000 OA
ENDROOT
TORSDOF 0
REMARK  Name = ../refined-set-2016/2ihj/2ihj_pocket.pdb
REMARK  251 active torsions:
REMARK  status: ('A' for Active; 'I' for Inactive)
REMARK    1  A    between atoms: _1  and  _3
REMARK    2  A    between atoms: _3  and  _4
REMARK    3  A    between atoms: _3  and  _6
REMARK    4  A    between atoms: _6  and  _7
REMARK    5  A    between atoms: _11  and  _12
REMARK    6  A    between atoms: _17  and  _19
REMARK    7  A    between atoms: _19  and  _20
REMARK    8  A    between atoms: _23  and  _25
REMARK    9  A    between atoms: _25  and  _26
REMARK   10  A    between atoms: _25  and  _28
REMARK   11  A    between atoms: _28  and  _29
REMARK   12  A    between atoms: _31  and  _33
REMARK   13  A    between atoms: _33  and  _34
REMARK   14  A    between atoms: _33  and  _36
REMARK   15  A    between atoms: _36  and  _37
REMARK   16  A    between atoms: _41  and  _42
REMARK   17  A    between atoms: _47  and  _49
REMARK   18  A    between atoms: _49  and  _50
REMARK   19  A    between atoms: _49  and  _52
REMARK   20  A    between atoms: _52  and  _53
REMARK   21  A    between atoms: _56  and  _58
REMARK   22  A    between atoms: _58  and  _59
REMARK   23  A    between atoms: _58  and  _61
REMARK   24  A    between atoms: _61  and  _62
REMARK   25  A    between atoms: _62  and  _63
REMARK   26  A    between atoms: _63  and  _64
REMARK   27  A    between atoms: _73  and  _75
REMARK   28  A    between atoms: _75  and  _76
REMARK   29  A    between atoms: _75  and  _78
REMARK   30  A    between atoms: _78  and  _79
REMARK   31  A    between atoms: _85  and  _87
REMARK   32  A    between atoms: _87  and  _88
REMARK   33  A    between atoms: _87  and  _90
REMARK   34  A    between atoms: _90  and  _91
REMARK   35  A    between atoms: _96  and  _98
REMARK   36  A    between atoms: _98  and  _99
REMARK   37  A    between atoms: _102  and  _104
REMARK   38  A    between atoms: _104  and  _105
REMARK   39  A    between atoms: _104  and  _107
REMARK   40  A    between atoms: _107  and  _108
REMARK   41  A    between atoms: _113  and  _115
REMARK   42  A    between atoms: _115  and  _116
REMARK   43  A    between atoms: _115  and  _118
REMARK   44  A    between atoms: _118  and  _119
REMARK   45  A    between atoms: _122  and  _124
REMARK   46  A    between atoms: _124  and  _125
REMARK   47  A    between atoms: _124  and  _127
REMARK   48  A    between atoms: _127  and  _128
REMARK   49  A    between atoms: _131  and  _133
REMARK   50  A    between atoms: _133  and  _134
REMARK   51  A    between atoms: _136  and  _138
REMARK   52  A    between atoms: _138  and  _139
REMARK   53  A    between atoms: _138  and  _141
REMARK   54  A    between atoms: _141  and  _142
REMARK   55  A    between atoms: _144  and  _146
REMARK   56  A    between atoms: _146  and  _147
REMARK   57  A    between atoms: _146  and  _149
REMARK   58  A    between atoms: _149  and  _150
REMARK   59  A    between atoms: _150  and  _151
REMARK   60  A    between atoms: _153  and  _155
REMARK   61  A    between atoms: _155  and  _156
REMARK   62  A    between atoms: _155  and  _158
REMARK   63  A    between atoms: _158  and  _159
REMARK   64  A    between atoms: _159  and  _160
REMARK   65  A    between atoms: _163  and  _165
REMARK   66  A    between atoms: _165  and  _166
REMARK   67  A    between atoms: _165  and  _168
REMARK   68  A    between atoms: _168  and  _169
REMARK   69  A    between atoms: _174  and  _175
REMARK   70  A    between atoms: _177  and  _179
REMARK   71  A    between atoms: _179  and  _180
REMARK   72  A    between atoms: _179  and  _182
REMARK   73  A    between atoms: _185  and  _187
REMARK   74  A    between atoms: _187  and  _188
REMARK   75  A    between atoms: _187  and  _190
REMARK   76  A    between atoms: _190  and  _191
REMARK   77  A    between atoms: _194  and  _196
REMARK   78  A    between atoms: _196  and  _197
REMARK   79  A    between atoms: _196  and  _199
REMARK   80  A    between atoms: _199  and  _200
REMARK   81  A    between atoms: _200  and  _201
REMARK   82  A    between atoms: _201  and  _202
REMARK   83  A    between atoms: _202  and  _203
REMARK   84  A    between atoms: _207  and  _209
REMARK   85  A    between atoms: _209  and  _210
REMARK   86  A    between atoms: _209  and  _212
REMARK   87  A    between atoms: _212  and  _213
REMARK   88  A    between atoms: _216  and  _218
REMARK   89  A    between atoms: _218  and  _219
REMARK   90  A    between atoms: _218  and  _221
REMARK   91  A    between atoms: _221  and  _222
REMARK   92  A    between atoms: _222  and  _223
REMARK   93  A    between atoms: _225  and  _227
REMARK   94  A    between atoms: _227  and  _228
REMARK   95  A    between atoms: _227  and  _230
REMARK   96  A    between atoms: _230  and  _231
REMARK   97  A    between atoms: _241  and  _243
REMARK   98  A    between atoms: _243  and  _244
REMARK   99  A    between atoms: _243  and  _246
REMARK  100  A    between atoms: _246  and  _247
REMARK  101  A    between atoms: _250  and  _252
REMARK  102  A    between atoms: _252  and  _253
REMARK  103  A    between atoms: _252  and  _255
REMARK  104  A    between atoms: _255  and  _256
REMARK  105  A    between atoms: _262  and  _264
REMARK  106  A    between atoms: _264  and  _265
REMARK  107  A    between atoms: _264  and  _267
REMARK  108  A    between atoms: _267  and  _268
REMARK  109  A    between atoms: _271  and  _273
REMARK  110  A    between atoms: _273  and  _274
REMARK  111  A    between atoms: _276  and  _278
REMARK  112  A    between atoms: _278  and  _279
REMARK  113  A    between atoms: _278  and  _281
REMARK  114  A    between atoms: _281  and  _282
REMARK  115  A    between atoms: _285  and  _287
REMARK  116  A    between atoms: _287  and  _288
REMARK  117  A    between atoms: _287  and  _290
REMARK  118  A    between atoms: _290  and  _291
REMARK  119  A    between atoms: _294  and  _296
REMARK  120  A    between atoms: _296  and  _297
REMARK  121  A    between atoms: _296  and  _299
REMARK  122  A    between atoms: _299  and  _300
REMARK  123  A    between atoms: _303  and  _305
REMARK  124  A    between atoms: _305  and  _306
REMARK  125  A    between atoms: _305  and  _308
REMARK  126  A    between atoms: _308  and  _309
REMARK  127  A    between atoms: _319  and  _321
REMARK  128  A    between atoms: _321  and  _322
REMARK  129  A    between atoms: _321  and  _324
REMARK  130  A    between atoms: _324  and  _325
REMARK  131  A    between atoms: _325  and  _326
REMARK  132  A    between atoms: _329  and  _331
REMARK  133  A    between atoms: _331  and  _332
REMARK  134  A    between atoms: _331  and  _334
REMARK  135  A    between atoms: _334  and  _335
REMARK  136  A    between atoms: _335  and  _336
REMARK  137  A    between atoms: _336  and  _337
REMARK  138  A    between atoms: _346  and  _348
REMARK  139  A    between atoms: _348  and  _349
REMARK  140  A    between atoms: _348  and  _351
REMARK  141  A    between atoms: _351  and  _352
REMARK  142  A    between atoms: _357  and  _358
REMARK  143  A    between atoms: _360  and  _362
REMARK  144  A    between atoms: _362  and  _363
REMARK  145  A    between atoms: _362  and  _365
REMARK  146  A    between atoms: _365  and  _366
REMARK  147  A    between atoms: _366  and  _367
REMARK  148  A    between atoms: _372  and  _374
REMARK  149  A    between atoms: _374  and  _375
REMARK  150  A    between atoms: _374  and  _377
REMARK  151  A    between atoms: _377  and  _378
REMARK  152  A    between atoms: _384  and  _386
REMARK  153  A    between atoms: _386  and  _387
REMARK  154  A    between atoms: _386  and  _389
REMARK  155  A    between atoms: _389  and  _390
REMARK  156  A    between atoms: _390  and  _391
REMARK  157  A    between atoms: _391  and  _392
REMARK  158  A    between atoms: _392  and  _393
REMARK  159  A    between atoms: _397  and  _399
REMARK  160  A    between atoms: _399  and  _400
REMARK  161  A    between atoms: _402  and  _404
REMARK  162  A    between atoms: _404  and  _405
REMARK  163  A    between atoms: _404  and  _407
REMARK  164  A    between atoms: _407  and  _408
REMARK  165  A    between atoms: _414  and  _415
REMARK  166  A    between atoms: _420  and  _422
REMARK  167  A    between atoms: _422  and  _423
REMARK  168  A    between atoms: _422  and  _425
REMARK  169  A    between atoms: _425  and  _426
REMARK  170  A    between atoms: _426  and  _427
REMARK  171  A    between atoms: _427  and  _428
REMARK  172  A    between atoms: _437  and  _439
REMARK  173  A    between atoms: _439  and  _440
REMARK  174  A    between atoms: _442  and  _444
REMARK  175  A    between atoms: _444  and  _445
REMARK  176  A    between atoms: _444  and  _447
REMARK  177  A    between atoms: _447  and  _448
REMARK  178  A    between atoms: _453  and  _455
REMARK  179  A    between atoms: _455  and  _456
REMARK  180  A    between atoms: _455  and  _458
REMARK  181  A    between atoms: _458  and  _459
REMARK  182  A    between atoms: _463  and  _464
REMARK  183  A    between atoms: _469  and  _471
REMARK  184  A    between atoms: _471  and  _472
REMARK  185  A    between atoms: _475  and  _477
REMARK  186  A    between atoms: _477  and  _478
REMARK  187  A    between atoms: _477  and  _480
REMARK  188  A    between atoms: _480  and  _481
REMARK  189  A    between atoms: _486  and  _488
REMARK  190  A    between atoms: _488  and  _489
REMARK  191  A    between atoms: _488  and  _491
REMARK  192  A    between atoms: _491  and  _492
REMARK  193  A    between atoms: _495  and  _497
REMARK  194  A    between atoms: _497  and  _498
REMARK  195  A    between atoms: _497  and  _500
REMARK  196  A    between atoms: _500  and  _501
REMARK  197  A    between atoms: _503  and  _505
REMARK  198  A    between atoms: _505  and  _506
REMARK  199  A    between atoms: _505  and  _508
REMARK  200  A    between atoms: _508  and  _509
REMARK  201  A    between atoms: _515  and  _517
REMARK  202  A    between atoms: _517  and  _518
REMARK  203  A    between atoms: _517  and  _520
REMARK  204  A    between atoms: _520  and  _521
REMARK  205  A    between atoms: _521  and  _522
REMARK  206  A    between atoms: _525  and  _527
REMARK  207  A    between atoms: _527  and  _528
REMARK  208  A    between atoms: _527  and  _530
REMARK  209  A    between atoms: _533  and  _535
REMARK  210  A    between atoms: _535  and  _536
REMARK  211  A    between atoms: _535  and  _538
REMARK  212  A    between atoms: _538  and  _539
REMARK  213  A    between atoms: _542  and  _544
REMARK  214  A    between atoms: _544  and  _545
REMARK  215  A    between atoms: _544  and  _547
REMARK  216  A    between atoms: _550  and  _552
REMARK  217  A    between atoms: _552  and  _553
REMARK  218  A    between atoms: _556  and  _558
REMARK  219  A    between atoms: _558  and  _559
REMARK  220  A    between atoms: _558  and  _561
REMARK  221  A    between atoms: _561  and  _562
REMARK  222  A    between atoms: _564  and  _566
REMARK  223  A    between atoms: _566  and  _567
REMARK  224  A    between atoms: _566  and  _569
REMARK  225  A    between atoms: _569  and  _570
REMARK  226  A    between atoms: _572  and  _574
REMARK  227  A    between atoms: _574  and  _575
REMARK  228  A    between atoms: _574  and  _577
REMARK  229  A    between atoms: _577  and  _578
REMARK  230  A    between atoms: _581  and  _583
REMARK  231  A    between atoms: _583  and  _584
REMARK  232  A    between atoms: _583  and  _586
REMARK  233  A    between atoms: _586  and  _587
REMARK  234  A    between atoms: _592  and  _593
REMARK  235  A    between atoms: _595  and  _597
REMARK  236  A    between atoms: _597  and  _598
REMARK  237  A    between atoms: _597  and  _600
REMARK  238  A    between atoms: _600  and  _601
REMARK  239  A    between atoms: _607  and  _609
REMARK  240  A    between atoms: _609  and  _610
REMARK  241  A    between atoms: _609  and  _612
REMARK  242  A    between atoms: _612  and  _613
REMARK  243  A    between atoms: _615  and  _617
REMARK  244  A    between atoms: _617  and  _618
REMARK  245  A    between atoms: _617  and  _620
REMARK  246  A    between atoms: _620  and  _621
REMARK  247  A    between atoms: _624  and  _626
REMARK  248  A    between atoms: _626  and  _627
REMARK  249  A    between atoms: _626  and  _629
REMARK  250  A    between atoms: _629  and  _630
REMARK  251  A    between atoms: _635  and  _636
REMARK                            x       y       z     vdW  Elec       q    Type
REMARK                         _______ _______ _______ _____ _____    ______ ____
ROOT
ATOM      1  O   HOH     1       6.777 -12.443  -2.795  0.00  0.00    +0.000 OA
ENDROOT
TORSDOF 0
REMARK  Name = ../refined-set-2016/2ihj/2ihj_pocket.pdb
REMARK  251 active torsions:
REMARK  status: ('A' for Active; 'I' for Inactive)
REMARK    1  A    between atoms: _1  and  _3
REMARK    2  A    between atoms: _3  and  _4
REMARK    3  A    between atoms: _3  and  _6
REMARK    4  A    between atoms: _6  and  _7
REMARK    5  A    between atoms: _11  and  _12
REMARK    6  A    between atoms: _17  and  _19
REMARK    7  A    between atoms: _19  and  _20
REMARK    8  A    between atoms: _23  and  _25
REMARK    9  A    between atoms: _25  and  _26
REMARK   10  A    between atoms: _25  and  _28
REMARK   11  A    between atoms: _28  and  _29
REMARK   12  A    between atoms: _31  and  _33
REMARK   13  A    between atoms: _33  and  _34
REMARK   14  A    between atoms: _33  and  _36
REMARK   15  A    between atoms: _36  and  _37
REMARK   16  A    between atoms: _41  and  _42
REMARK   17  A    between atoms: _47  and  _49
REMARK   18  A    between atoms: _49  and  _50
REMARK   19  A    between atoms: _49  and  _52
REMARK   20  A    between atoms: _52  and  _53
REMARK   21  A    between atoms: _56  and  _58
REMARK   22  A    between atoms: _58  and  _59
REMARK   23  A    between atoms: _58  and  _61
REMARK   24  A    between atoms: _61  and  _62
REMARK   25  A    between atoms: _62  and  _63
REMARK   26  A    between atoms: _63  and  _64
REMARK   27  A    between atoms: _73  and  _75
REMARK   28  A    between atoms: _75  and  _76
REMARK   29  A    between atoms: _75  and  _78
REMARK   30  A    between atoms: _78  and  _79
REMARK   31  A    between atoms: _85  and  _87
REMARK   32  A    between atoms: _87  and  _88
REMARK   33  A    between atoms: _87  and  _90
REMARK   34  A    between atoms: _90  and  _91
REMARK   35  A    between atoms: _96  and  _98
REMARK   36  A    between atoms: _98  and  _99
REMARK   37  A    between atoms: _102  and  _104
REMARK   38  A    between atoms: _104  and  _105
REMARK   39  A    between atoms: _104  and  _107
REMARK   40  A    between atoms: _107  and  _108
REMARK   41  A    between atoms: _113  and  _115
REMARK   42  A    between atoms: _115  and  _116
REMARK   43  A    between atoms: _115  and  _118
REMARK   44  A    between atoms: _118  and  _119
REMARK   45  A    between atoms: _122  and  _124
REMARK   46  A    between atoms: _124  and  _125
REMARK   47  A    between atoms: _124  and  _127
REMARK   48  A    between atoms: _127  and  _128
REMARK   49  A    between atoms: _131  and  _133
REMARK   50  A    between atoms: _133  and  _134
REMARK   51  A    between atoms: _136  and  _138
REMARK   52  A    between atoms: _138  and  _139
REMARK   53  A    between atoms: _138  and  _141
REMARK   54  A    between atoms: _141  and  _142
REMARK   55  A    between atoms: _144  and  _146
REMARK   56  A    between atoms: _146  and  _147
REMARK   57  A    between atoms: _146  and  _149
REMARK   58  A    between atoms: _149  and  _150
REMARK   59  A    between atoms: _150  and  _151
REMARK   60  A    between atoms: _153  and  _155
REMARK   61  A    between atoms: _155  and  _156
REMARK   62  A    between atoms: _155  and  _158
REMARK   63  A    between atoms: _158  and  _159
REMARK   64  A    between atoms: _159  and  _160
REMARK   65  A    between atoms: _163  and  _165
REMARK   66  A    between atoms: _165  and  _166
REMARK   67  A    between atoms: _165  and  _168
REMARK   68  A    between atoms: _168  and  _169
REMARK   69  A    between atoms: _174  and  _175
REMARK   70  A    between atoms: _177  and  _179
REMARK   71  A    between atoms: _179  and  _180
REMARK   72  A    between atoms: _179  and  _182
REMARK   73  A    between atoms: _185  and  _187
REMARK   74  A    between atoms: _187  and  _188
REMARK   75  A    between atoms: _187  and  _190
REMARK   76  A    between atoms: _190  and  _191
REMARK   77  A    between atoms: _194  and  _196
REMARK   78  A    between atoms: _196  and  _197
REMARK   79  A    between atoms: _196  and  _199
REMARK   80  A    between atoms: _199  and  _200
REMARK   81  A    between atoms: _200  and  _201
REMARK   82  A    between atoms: _201  and  _202
REMARK   83  A    between atoms: _202  and  _203
REMARK   84  A    between atoms: _207  and  _209
REMARK   85  A    between atoms: _209  and  _210
REMARK   86  A    between atoms: _209  and  _212
REMARK   87  A    between atoms: _212  and  _213
REMARK   88  A    between atoms: _216  and  _218
REMARK   89  A    between atoms: _218  and  _219
REMARK   90  A    between atoms: _218  and  _221
REMARK   91  A    between atoms: _221  and  _222
REMARK   92  A    between atoms: _222  and  _223
REMARK   93  A    between atoms: _225  and  _227
REMARK   94  A    between atoms: _227  and  _228
REMARK   95  A    between atoms: _227  and  _230
REMARK   96  A    between atoms: _230  and  _231
REMARK   97  A    between atoms: _241  and  _243
REMARK   98  A    between atoms: _243  and  _244
REMARK   99  A    between atoms: _243  and  _246
REMARK  100  A    between atoms: _246  and  _247
REMARK  101  A    between atoms: _250  and  _252
REMARK  102  A    between atoms: _252  and  _253
REMARK  103  A    between atoms: _252  and  _255
REMARK  104  A    between atoms: _255  and  _256
REMARK  105  A    between atoms: _262  and  _264
REMARK  106  A    between atoms: _264  and  _265
REMARK  107  A    between atoms: _264  and  _267
REMARK  108  A    between atoms: _267  and  _268
REMARK  109  A    between atoms: _271  and  _273
REMARK  110  A    between atoms: _273  and  _274
REMARK  111  A    between atoms: _276  and  _278
REMARK  112  A    between atoms: _278  and  _279
REMARK  113  A    between atoms: _278  and  _281
REMARK  114  A    between atoms: _281  and  _282
REMARK  115  A    between atoms: _285  and  _287
REMARK  116  A    between atoms: _287  and  _288
REMARK  117  A    between atoms: _287  and  _290
REMARK  118  A    between atoms: _290  and  _291
REMARK  119  A    between atoms: _294  and  _296
REMARK  120  A    between atoms: _296  and  _297
REMARK  121  A    between atoms: _296  and  _299
REMARK  122  A    between atoms: _299  and  _300
REMARK  123  A    between atoms: _303  and  _305
REMARK  124  A    between atoms: _305  and  _306
REMARK  125  A    between atoms: _305  and  _308
REMARK  126  A    between atoms: _308  and  _309
REMARK  127  A    between atoms: _319  and  _321
REMARK  128  A    between atoms: _321  and  _322
REMARK  129  A    between atoms: _321  and  _324
REMARK  130  A    between atoms: _324  and  _325
REMARK  131  A    between atoms: _325  and  _326
REMARK  132  A    between atoms: _329  and  _331
REMARK  133  A    between atoms: _331  and  _332
REMARK  134  A    between atoms: _331  and  _334
REMARK  135  A    between atoms: _334  and  _335
REMARK  136  A    between atoms: _335  and  _336
REMARK  137  A    between atoms: _336  and  _337
REMARK  138  A    between atoms: _346  and  _348
REMARK  139  A    between atoms: _348  and  _349
REMARK  140  A    between atoms: _348  and  _351
REMARK  141  A    between atoms: _351  and  _352
REMARK  142  A    between atoms: _357  and  _358
REMARK  143  A    between atoms: _360  and  _362
REMARK  144  A    between atoms: _362  and  _363
REMARK  145  A    between atoms: _362  and  _365
REMARK  146  A    between atoms: _365  and  _366
REMARK  147  A    between atoms: _366  and  _367
REMARK  148  A    between atoms: _372  and  _374
REMARK  149  A    between atoms: _374  and  _375
REMARK  150  A    between atoms: _374  and  _377
REMARK  151  A    between atoms: _377  and  _378
REMARK  152  A    between atoms: _384  and  _386
REMARK  153  A    between atoms: _386  and  _387
REMARK  154  A    between atoms: _386  and  _389
REMARK  155  A    between atoms: _389  and  _390
REMARK  156  A    between atoms: _390  and  _391
REMARK  157  A    between atoms: _391  and  _392
REMARK  158  A    between atoms: _392  and  _393
REMARK  159  A    between atoms: _397  and  _399
REMARK  160  A    between atoms: _399  and  _400
REMARK  161  A    between atoms: _402  and  _404
REMARK  162  A    between atoms: _404  and  _405
REMARK  163  A    between atoms: _404  and  _407
REMARK  164  A    between atoms: _407  and  _408
REMARK  165  A    between atoms: _414  and  _415
REMARK  166  A    between atoms: _420  and  _422
REMARK  167  A    between atoms: _422  and  _423
REMARK  168  A    between atoms: _422  and  _425
REMARK  169  A    between atoms: _425  and  _426
REMARK  170  A    between atoms: _426  and  _427
REMARK  171  A    between atoms: _427  and  _428
REMARK  172  A    between atoms: _437  and  _439
REMARK  173  A    between atoms: _439  and  _440
REMARK  174  A    between atoms: _442  and  _444
REMARK  175  A    between atoms: _444  and  _445
REMARK  176  A    between atoms: _444  and  _447
REMARK  177  A    between atoms: _447  and  _448
REMARK  178  A    between atoms: _453  and  _455
REMARK  179  A    between atoms: _455  and  _456
REMARK  180  A    between atoms: _455  and  _458
REMARK  181  A    between atoms: _458  and  _459
REMARK  182  A    between atoms: _463  and  _464
REMARK  183  A    between atoms: _469  and  _471
REMARK  184  A    between atoms: _471  and  _472
REMARK  185  A    between atoms: _475  and  _477
REMARK  186  A    between atoms: _477  and  _478
REMARK  187  A    between atoms: _477  and  _480
REMARK  188  A    between atoms: _480  and  _481
REMARK  189  A    between atoms: _486  and  _488
REMARK  190  A    between atoms: _488  and  _489
REMARK  191  A    between atoms: _488  and  _491
REMARK  192  A    between atoms: _491  and  _492
REMARK  193  A    between atoms: _495  and  _497
REMARK  194  A    between atoms: _497  and  _498
REMARK  195  A    between atoms: _497  and  _500
REMARK  196  A    between atoms: _500  and  _501
REMARK  197  A    between atoms: _503  and  _505
REMARK  198  A    between atoms: _505  and  _506
REMARK  199  A    between atoms: _505  and  _508
REMARK  200  A    between atoms: _508  and  _509
REMARK  201  A    between atoms: _515  and  _517
REMARK  202  A    between atoms: _517  and  _518
REMARK  203  A    between atoms: _517  and  _520
REMARK  204  A    between atoms: _520  and  _521
REMARK  205  A    between atoms: _521  and  _522
REMARK  206  A    between atoms: _525  and  _527
REMARK  207  A    between atoms: _527  and  _528
REMARK  208  A    between atoms: _527  and  _530
REMARK  209  A    between atoms: _533  and  _535
REMARK  210  A    between atoms: _535  and  _536
REMARK  211  A    between atoms: _535  and  _538
REMARK  212  A    between atoms: _538  and  _539
REMARK  213  A    between atoms: _542  and  _544
REMARK  214  A    between atoms: _544  and  _545
REMARK  215  A    between atoms: _544  and  _547
REMARK  216  A    between atoms: _550  and  _552
REMARK  217  A    between atoms: _552  and  _553
REMARK  218  A    between atoms: _556  and  _558
REMARK  219  A    between atoms: _558  and  _559
REMARK  220  A    between atoms: _558  and  _561
REMARK  221  A    between atoms: _561  and  _562
REMARK  222  A    between atoms: _564  and  _566
REMARK  223  A    between atoms: _566  and  _567
REMARK  224  A    between atoms: _566  and  _569
REMARK  225  A    between atoms: _569  and  _570
REMARK  226  A    between atoms: _572  and  _574
REMARK  227  A    between atoms: _574  and  _575
REMARK  228  A    between atoms: _574  and  _577
REMARK  229  A    between atoms: _577  and  _578
REMARK  230  A    between atoms: _581  and  _583
REMARK  231  A    between atoms: _583  and  _584
REMARK  232  A    between atoms: _583  and  _586
REMARK  233  A    between atoms: _586  and  _587
REMARK  234  A    between atoms: _592  and  _593
REMARK  235  A    between atoms: _595  and  _597
REMARK  236  A    between atoms: _597  and  _598
REMARK  237  A    between atoms: _597  and  _600
REMARK  238  A    between atoms: _600  and  _601
REMARK  239  A    between atoms: _607  and  _609
REMARK  240  A    between atoms: _609  and  _610
REMARK  241  A    between atoms: _609  and  _612
REMARK  242  A    between atoms: _612  and  _613
REMARK  243  A    between atoms: _615  and  _617
REMARK  244  A    between atoms: _617  and  _618
REMARK  245  A    between atoms: _617  and  _620
REMARK  246  A    between atoms: _620  and  _621
REMARK  247  A    between atoms: _624  and  _626
REMARK  248  A    between atoms: _626  and  _627
REMARK  249  A    between atoms: _626  and  _629
REMARK  250  A    between atoms: _629  and  _630
REMARK  251  A    between atoms: _635  and  _636
REMARK                            x       y       z     vdW  Elec       q    Type
REMARK                         _______ _______ _______ _____ _____    ______ ____
ROOT
ATOM      1  O   HOH     1      11.378   3.602  -3.681  0.00  0.00    +0.000 OA
ENDROOT
TORSDOF 0
REMARK  Name = ../refined-set-2016/2ihj/2ihj_pocket.pdb
REMARK  251 active torsions:
REMARK  status: ('A' for Active; 'I' for Inactive)
REMARK    1  A    between atoms: _1  and  _3
REMARK    2  A    between atoms: _3  and  _4
REMARK    3  A    between atoms: _3  and  _6
REMARK    4  A    between atoms: _6  and  _7
REMARK    5  A    between atoms: _11  and  _12
REMARK    6  A    between atoms: _17  and  _19
REMARK    7  A    between atoms: _19  and  _20
REMARK    8  A    between atoms: _23  and  _25
REMARK    9  A    between atoms: _25  and  _26
REMARK   10  A    between atoms: _25  and  _28
REMARK   11  A    between atoms: _28  and  _29
REMARK   12  A    between atoms: _31  and  _33
REMARK   13  A    between atoms: _33  and  _34
REMARK   14  A    between atoms: _33  and  _36
REMARK   15  A    between atoms: _36  and  _37
REMARK   16  A    between atoms: _41  and  _42
REMARK   17  A    between atoms: _47  and  _49
REMARK   18  A    between atoms: _49  and  _50
REMARK   19  A    between atoms: _49  and  _52
REMARK   20  A    between atoms: _52  and  _53
REMARK   21  A    between atoms: _56  and  _58
REMARK   22  A    between atoms: _58  and  _59
REMARK   23  A    between atoms: _58  and  _61
REMARK   24  A    between atoms: _61  and  _62
REMARK   25  A    between atoms: _62  and  _63
REMARK   26  A    between atoms: _63  and  _64
REMARK   27  A    between atoms: _73  and  _75
REMARK   28  A    between atoms: _75  and  _76
REMARK   29  A    between atoms: _75  and  _78
REMARK   30  A    between atoms: _78  and  _79
REMARK   31  A    between atoms: _85  and  _87
REMARK   32  A    between atoms: _87  and  _88
REMARK   33  A    between atoms: _87  and  _90
REMARK   34  A    between atoms: _90  and  _91
REMARK   35  A    between atoms: _96  and  _98
REMARK   36  A    between atoms: _98  and  _99
REMARK   37  A    between atoms: _102  and  _104
REMARK   38  A    between atoms: _104  and  _105
REMARK   39  A    between atoms: _104  and  _107
REMARK   40  A    between atoms: _107  and  _108
REMARK   41  A    between atoms: _113  and  _115
REMARK   42  A    between atoms: _115  and  _116
REMARK   43  A    between atoms: _115  and  _118
REMARK   44  A    between atoms: _118  and  _119
REMARK   45  A    between atoms: _122  and  _124
REMARK   46  A    between atoms: _124  and  _125
REMARK   47  A    between atoms: _124  and  _127
REMARK   48  A    between atoms: _127  and  _128
REMARK   49  A    between atoms: _131  and  _133
REMARK   50  A    between atoms: _133  and  _134
REMARK   51  A    between atoms: _136  and  _138
REMARK   52  A    between atoms: _138  and  _139
REMARK   53  A    between atoms: _138  and  _141
REMARK   54  A    between atoms: _141  and  _142
REMARK   55  A    between atoms: _144  and  _146
REMARK   56  A    between atoms: _146  and  _147
REMARK   57  A    between atoms: _146  and  _149
REMARK   58  A    between atoms: _149  and  _150
REMARK   59  A    between atoms: _150  and  _151
REMARK   60  A    between atoms: _153  and  _155
REMARK   61  A    between atoms: _155  and  _156
REMARK   62  A    between atoms: _155  and  _158
REMARK   63  A    between atoms: _158  and  _159
REMARK   64  A    between atoms: _159  and  _160
REMARK   65  A    between atoms: _163  and  _165
REMARK   66  A    between atoms: _165  and  _166
REMARK   67  A    between atoms: _165  and  _168
REMARK   68  A    between atoms: _168  and  _169
REMARK   69  A    between atoms: _174  and  _175
REMARK   70  A    between atoms: _177  and  _179
REMARK   71  A    between atoms: _179  and  _180
REMARK   72  A    between atoms: _179  and  _182
REMARK   73  A    between atoms: _185  and  _187
REMARK   74  A    between atoms: _187  and  _188
REMARK   75  A    between atoms: _187  and  _190
REMARK   76  A    between atoms: _190  and  _191
REMARK   77  A    between atoms: _194  and  _196
REMARK   78  A    between atoms: _196  and  _197
REMARK   79  A    between atoms: _196  and  _199
REMARK   80  A    between atoms: _199  and  _200
REMARK   81  A    between atoms: _200  and  _201
REMARK   82  A    between atoms: _201  and  _202
REMARK   83  A    between atoms: _202  and  _203
REMARK   84  A    between atoms: _207  and  _209
REMARK   85  A    between atoms: _209  and  _210
REMARK   86  A    between atoms: _209  and  _212
REMARK   87  A    between atoms: _212  and  _213
REMARK   88  A    between atoms: _216  and  _218
REMARK   89  A    between atoms: _218  and  _219
REMARK   90  A    between atoms: _218  and  _221
REMARK   91  A    between atoms: _221  and  _222
REMARK   92  A    between atoms: _222  and  _223
REMARK   93  A    between atoms: _225  and  _227
REMARK   94  A    between atoms: _227  and  _228
REMARK   95  A    between atoms: _227  and  _230
REMARK   96  A    between atoms: _230  and  _231
REMARK   97  A    between atoms: _241  and  _243
REMARK   98  A    between atoms: _243  and  _244
REMARK   99  A    between atoms: _243  and  _246
REMARK  100  A    between atoms: _246  and  _247
REMARK  101  A    between atoms: _250  and  _252
REMARK  102  A    between atoms: _252  and  _253
REMARK  103  A    between atoms: _252  and  _255
REMARK  104  A    between atoms: _255  and  _256
REMARK  105  A    between atoms: _262  and  _264
REMARK  106  A    between atoms: _264  and  _265
REMARK  107  A    between atoms: _264  and  _267
REMARK  108  A    between atoms: _267  and  _268
REMARK  109  A    between atoms: _271  and  _273
REMARK  110  A    between atoms: _273  and  _274
REMARK  111  A    between atoms: _276  and  _278
REMARK  112  A    between atoms: _278  and  _279
REMARK  113  A    between atoms: _278  and  _281
REMARK  114  A    between atoms: _281  and  _282
REMARK  115  A    between atoms: _285  and  _287
REMARK  116  A    between atoms: _287  and  _288
REMARK  117  A    between atoms: _287  and  _290
REMARK  118  A    between atoms: _290  and  _291
REMARK  119  A    between atoms: _294  and  _296
REMARK  120  A    between atoms: _296  and  _297
REMARK  121  A    between atoms: _296  and  _299
REMARK  122  A    between atoms: _299  and  _300
REMARK  123  A    between atoms: _303  and  _305
REMARK  124  A    between atoms: _305  and  _306
REMARK  125  A    between atoms: _305  and  _308
REMARK  126  A    between atoms: _308  and  _309
REMARK  127  A    between atoms: _319  and  _321
REMARK  128  A    between atoms: _321  and  _322
REMARK  129  A    between atoms: _321  and  _324
REMARK  130  A    between atoms: _324  and  _325
REMARK  131  A    between atoms: _325  and  _326
REMARK  132  A    between atoms: _329  and  _331
REMARK  133  A    between atoms: _331  and  _332
REMARK  134  A    between atoms: _331  and  _334
REMARK  135  A    between atoms: _334  and  _335
REMARK  136  A    between atoms: _335  and  _336
REMARK  137  A    between atoms: _336  and  _337
REMARK  138  A    between atoms: _346  and  _348
REMARK  139  A    between atoms: _348  and  _349
REMARK  140  A    between atoms: _348  and  _351
REMARK  141  A    between atoms: _351  and  _352
REMARK  142  A    between atoms: _357  and  _358
REMARK  143  A    between atoms: _360  and  _362
REMARK  144  A    between atoms: _362  and  _363
REMARK  145  A    between atoms: _362  and  _365
REMARK  146  A    between atoms: _365  and  _366
REMARK  147  A    between atoms: _366  and  _367
REMARK  148  A    between atoms: _372  and  _374
REMARK  149  A    between atoms: _374  and  _375
REMARK  150  A    between atoms: _374  and  _377
REMARK  151  A    between atoms: _377  and  _378
REMARK  152  A    between atoms: _384  and  _386
REMARK  153  A    between atoms: _386  and  _387
REMARK  154  A    between atoms: _386  and  _389
REMARK  155  A    between atoms: _389  and  _390
REMARK  156  A    between atoms: _390  and  _391
REMARK  157  A    between atoms: _391  and  _392
REMARK  158  A    between atoms: _392  and  _393
REMARK  159  A    between atoms: _397  and  _399
REMARK  160  A    between atoms: _399  and  _400
REMARK  161  A    between atoms: _402  and  _404
REMARK  162  A    between atoms: _404  and  _405
REMARK  163  A    between atoms: _404  and  _407
REMARK  164  A    between atoms: _407  and  _408
REMARK  165  A    between atoms: _414  and  _415
REMARK  166  A    between atoms: _420  and  _422
REMARK  167  A    between atoms: _422  and  _423
REMARK  168  A    between atoms: _422  and  _425
REMARK  169  A    between atoms: _425  and  _426
REMARK  170  A    between atoms: _426  and  _427
REMARK  171  A    between atoms: _427  and  _428
REMARK  172  A    between atoms: _437  and  _439
REMARK  173  A    between atoms: _439  and  _440
REMARK  174  A    between atoms: _442  and  _444
REMARK  175  A    between atoms: _444  and  _445
REMARK  176  A    between atoms: _444  and  _447
REMARK  177  A    between atoms: _447  and  _448
REMARK  178  A    between atoms: _453  and  _455
REMARK  179  A    between atoms: _455  and  _456
REMARK  180  A    between atoms: _455  and  _458
REMARK  181  A    between atoms: _458  and  _459
REMARK  182  A    between atoms: _463  and  _464
REMARK  183  A    between atoms: _469  and  _471
REMARK  184  A    between atoms: _471  and  _472
REMARK  185  A    between atoms: _475  and  _477
REMARK  186  A    between atoms: _477  and  _478
REMARK  187  A    between atoms: _477  and  _480
REMARK  188  A    between atoms: _480  and  _481
REMARK  189  A    between atoms: _486  and  _488
REMARK  190  A    between atoms: _488  and  _489
REMARK  191  A    between atoms: _488  and  _491
REMARK  192  A    between atoms: _491  and  _492
REMARK  193  A    between atoms: _495  and  _497
REMARK  194  A    between atoms: _497  and  _498
REMARK  195  A    between atoms: _497  and  _500
REMARK  196  A    between atoms: _500  and  _501
REMARK  197  A    between atoms: _503  and  _505
REMARK  198  A    between atoms: _505  and  _506
REMARK  199  A    between atoms: _505  and  _508
REMARK  200  A    between atoms: _508  and  _509
REMARK  201  A    between atoms: _515  and  _517
REMARK  202  A    between atoms: _517  and  _518
REMARK  203  A    between atoms: _517  and  _520
REMARK  204  A    between atoms: _520  and  _521
REMARK  205  A    between atoms: _521  and  _522
REMARK  206  A    between atoms: _525  and  _527
REMARK  207  A    between atoms: _527  and  _528
REMARK  208  A    between atoms: _527  and  _530
REMARK  209  A    between atoms: _533  and  _535
REMARK  210  A    between atoms: _535  and  _536
REMARK  211  A    between atoms: _535  and  _538
REMARK  212  A    between atoms: _538  and  _539
REMARK  213  A    between atoms: _542  and  _544
REMARK  214  A    between atoms: _544  and  _545
REMARK  215  A    between atoms: _544  and  _547
REMARK  216  A    between atoms: _550  and  _552
REMARK  217  A    between atoms: _552  and  _553
REMARK  218  A    between atoms: _556  and  _558
REMARK  219  A    between atoms: _558  and  _559
REMARK  220  A    between atoms: _558  and  _561
REMARK  221  A    between atoms: _561  and  _562
REMARK  222  A    between atoms: _564  and  _566
REMARK  223  A    between atoms: _566  and  _567
REMARK  224  A    between atoms: _566  and  _569
REMARK  225  A    between atoms: _569  and  _570
REMARK  226  A    between atoms: _572  and  _574
REMARK  227  A    between atoms: _574  and  _575
REMARK  228  A    between atoms: _574  and  _577
REMARK  229  A    between atoms: _577  and  _578
REMARK  230  A    between atoms: _581  and  _583
REMARK  231  A    between atoms: _583  and  _584
REMARK  232  A    between atoms: _583  and  _586
REMARK  233  A    between atoms: _586  and  _587
REMARK  234  A    between atoms: _592  and  _593
REMARK  235  A    between atoms: _595  and  _597
REMARK  236  A    between atoms: _597  and  _598
REMARK  237  A    between atoms: _597  and  _600
REMARK  238  A    between atoms: _600  and  _601
REMARK  239  A    between atoms: _607  and  _609
REMARK  240  A    between atoms: _609  and  _610
REMARK  241  A    between atoms: _609  and  _612
REMARK  242  A    between atoms: _612  and  _613
REMARK  243  A    between atoms: _615  and  _617
REMARK  244  A    between atoms: _617  and  _618
REMARK  245  A    between atoms: _617  and  _620
REMARK  246  A    between atoms: _620  and  _621
REMARK  247  A    between atoms: _624  and  _626
REMARK  248  A    between atoms: _626  and  _627
REMARK  249  A    between atoms: _626  and  _629
REMARK  250  A    between atoms: _629  and  _630
REMARK  251  A    between atoms: _635  and  _636
REMARK                            x       y       z     vdW  Elec       q    Type
REMARK                         _______ _______ _______ _____ _____    ______ ____
ROOT
ATOM      1  O   HOH     1      12.071   2.785  -6.275  0.00  0.00    +0.000 OA
ENDROOT
TORSDOF 0
REMARK  Name = ../refined-set-2016/2ihj/2ihj_pocket.pdb
REMARK  251 active torsions:
REMARK  status: ('A' for Active; 'I' for Inactive)
REMARK    1  A    between atoms: _1  and  _3
REMARK    2  A    between atoms: _3  and  _4
REMARK    3  A    between atoms: _3  and  _6
REMARK    4  A    between atoms: _6  and  _7
REMARK    5  A    between atoms: _11  and  _12
REMARK    6  A    between atoms: _17  and  _19
REMARK    7  A    between atoms: _19  and  _20
REMARK    8  A    between atoms: _23  and  _25
REMARK    9  A    between atoms: _25  and  _26
REMARK   10  A    between atoms: _25  and  _28
REMARK   11  A    between atoms: _28  and  _29
REMARK   12  A    between atoms: _31  and  _33
REMARK   13  A    between atoms: _33  and  _34
REMARK   14  A    between atoms: _33  and  _36
REMARK   15  A    between atoms: _36  and  _37
REMARK   16  A    between atoms: _41  and  _42
REMARK   17  A    between atoms: _47  and  _49
REMARK   18  A    between atoms: _49  and  _50
REMARK   19  A    between atoms: _49  and  _52
REMARK   20  A    between atoms: _52  and  _53
REMARK   21  A    between atoms: _56  and  _58
REMARK   22  A    between atoms: _58  and  _59
REMARK   23  A    between atoms: _58  and  _61
REMARK   24  A    between atoms: _61  and  _62
REMARK   25  A    between atoms: _62  and  _63
REMARK   26  A    between atoms: _63  and  _64
REMARK   27  A    between atoms: _73  and  _75
REMARK   28  A    between atoms: _75  and  _76
REMARK   29  A    between atoms: _75  and  _78
REMARK   30  A    between atoms: _78  and  _79
REMARK   31  A    between atoms: _85  and  _87
REMARK   32  A    between atoms: _87  and  _88
REMARK   33  A    between atoms: _87  and  _90
REMARK   34  A    between atoms: _90  and  _91
REMARK   35  A    between atoms: _96  and  _98
REMARK   36  A    between atoms: _98  and  _99
REMARK   37  A    between atoms: _102  and  _104
REMARK   38  A    between atoms: _104  and  _105
REMARK   39  A    between atoms: _104  and  _107
REMARK   40  A    between atoms: _107  and  _108
REMARK   41  A    between atoms: _113  and  _115
REMARK   42  A    between atoms: _115  and  _116
REMARK   43  A    between atoms: _115  and  _118
REMARK   44  A    between atoms: _118  and  _119
REMARK   45  A    between atoms: _122  and  _124
REMARK   46  A    between atoms: _124  and  _125
REMARK   47  A    between atoms: _124  and  _127
REMARK   48  A    between atoms: _127  and  _128
REMARK   49  A    between atoms: _131  and  _133
REMARK   50  A    between atoms: _133  and  _134
REMARK   51  A    between atoms: _136  and  _138
REMARK   52  A    between atoms: _138  and  _139
REMARK   53  A    between atoms: _138  and  _141
REMARK   54  A    between atoms: _141  and  _142
REMARK   55  A    between atoms: _144  and  _146
REMARK   56  A    between atoms: _146  and  _147
REMARK   57  A    between atoms: _146  and  _149
REMARK   58  A    between atoms: _149  and  _150
REMARK   59  A    between atoms: _150  and  _151
REMARK   60  A    between atoms: _153  and  _155
REMARK   61  A    between atoms: _155  and  _156
REMARK   62  A    between atoms: _155  and  _158
REMARK   63  A    between atoms: _158  and  _159
REMARK   64  A    between atoms: _159  and  _160
REMARK   65  A    between atoms: _163  and  _165
REMARK   66  A    between atoms: _165  and  _166
REMARK   67  A    between atoms: _165  and  _168
REMARK   68  A    between atoms: _168  and  _169
REMARK   69  A    between atoms: _174  and  _175
REMARK   70  A    between atoms: _177  and  _179
REMARK   71  A    between atoms: _179  and  _180
REMARK   72  A    between atoms: _179  and  _182
REMARK   73  A    between atoms: _185  and  _187
REMARK   74  A    between atoms: _187  and  _188
REMARK   75  A    between atoms: _187  and  _190
REMARK   76  A    between atoms: _190  and  _191
REMARK   77  A    between atoms: _194  and  _196
REMARK   78  A    between atoms: _196  and  _197
REMARK   79  A    between atoms: _196  and  _199
REMARK   80  A    between atoms: _199  and  _200
REMARK   81  A    between atoms: _200  and  _201
REMARK   82  A    between atoms: _201  and  _202
REMARK   83  A    between atoms: _202  and  _203
REMARK   84  A    between atoms: _207  and  _209
REMARK   85  A    between atoms: _209  and  _210
REMARK   86  A    between atoms: _209  and  _212
REMARK   87  A    between atoms: _212  and  _213
REMARK   88  A    between atoms: _216  and  _218
REMARK   89  A    between atoms: _218  and  _219
REMARK   90  A    between atoms: _218  and  _221
REMARK   91  A    between atoms: _221  and  _222
REMARK   92  A    between atoms: _222  and  _223
REMARK   93  A    between atoms: _225  and  _227
REMARK   94  A    between atoms: _227  and  _228
REMARK   95  A    between atoms: _227  and  _230
REMARK   96  A    between atoms: _230  and  _231
REMARK   97  A    between atoms: _241  and  _243
REMARK   98  A    between atoms: _243  and  _244
REMARK   99  A    between atoms: _243  and  _246
REMARK  100  A    between atoms: _246  and  _247
REMARK  101  A    between atoms: _250  and  _252
REMARK  102  A    between atoms: _252  and  _253
REMARK  103  A    between atoms: _252  and  _255
REMARK  104  A    between atoms: _255  and  _256
REMARK  105  A    between atoms: _262  and  _264
REMARK  106  A    between atoms: _264  and  _265
REMARK  107  A    between atoms: _264  and  _267
REMARK  108  A    between atoms: _267  and  _268
REMARK  109  A    between atoms: _271  and  _273
REMARK  110  A    between atoms: _273  and  _274
REMARK  111  A    between atoms: _276  and  _278
REMARK  112  A    between atoms: _278  and  _279
REMARK  113  A    between atoms: _278  and  _281
REMARK  114  A    between atoms: _281  and  _282
REMARK  115  A    between atoms: _285  and  _287
REMARK  116  A    between atoms: _287  and  _288
REMARK  117  A    between atoms: _287  and  _290
REMARK  118  A    between atoms: _290  and  _291
REMARK  119  A    between atoms: _294  and  _296
REMARK  120  A    between atoms: _296  and  _297
REMARK  121  A    between atoms: _296  and  _299
REMARK  122  A    between atoms: _299  and  _300
REMARK  123  A    between atoms: _303  and  _305
REMARK  124  A    between atoms: _305  and  _306
REMARK  125  A    between atoms: _305  and  _308
REMARK  126  A    between atoms: _308  and  _309
REMARK  127  A    between atoms: _319  and  _321
REMARK  128  A    between atoms: _321  and  _322
REMARK  129  A    between atoms: _321  and  _324
REMARK  130  A    between atoms: _324  and  _325
REMARK  131  A    between atoms: _325  and  _326
REMARK  132  A    between atoms: _329  and  _331
REMARK  133  A    between atoms: _331  and  _332
REMARK  134  A    between atoms: _331  and  _334
REMARK  135  A    between atoms: _334  and  _335
REMARK  136  A    between atoms: _335  and  _336
REMARK  137  A    between atoms: _336  and  _337
REMARK  138  A    between atoms: _346  and  _348
REMARK  139  A    between atoms: _348  and  _349
REMARK  140  A    between atoms: _348  and  _351
REMARK  141  A    between atoms: _351  and  _352
REMARK  142  A    between atoms: _357  and  _358
REMARK  143  A    between atoms: _360  and  _362
REMARK  144  A    between atoms: _362  and  _363
REMARK  145  A    between atoms: _362  and  _365
REMARK  146  A    between atoms: _365  and  _366
REMARK  147  A    between atoms: _366  and  _367
REMARK  148  A    between atoms: _372  and  _374
REMARK  149  A    between atoms: _374  and  _375
REMARK  150  A    between atoms: _374  and  _377
REMARK  151  A    between atoms: _377  and  _378
REMARK  152  A    between atoms: _384  and  _386
REMARK  153  A    between atoms: _386  and  _387
REMARK  154  A    between atoms: _386  and  _389
REMARK  155  A    between atoms: _389  and  _390
REMARK  156  A    between atoms: _390  and  _391
REMARK  157  A    between atoms: _391  and  _392
REMARK  158  A    between atoms: _392  and  _393
REMARK  159  A    between atoms: _397  and  _399
REMARK  160  A    between atoms: _399  and  _400
REMARK  161  A    between atoms: _402  and  _404
REMARK  162  A    between atoms: _404  and  _405
REMARK  163  A    between atoms: _404  and  _407
REMARK  164  A    between atoms: _407  and  _408
REMARK  165  A    between atoms: _414  and  _415
REMARK  166  A    between atoms: _420  and  _422
REMARK  167  A    between atoms: _422  and  _423
REMARK  168  A    between atoms: _422  and  _425
REMARK  169  A    between atoms: _425  and  _426
REMARK  170  A    between atoms: _426  and  _427
REMARK  171  A    between atoms: _427  and  _428
REMARK  172  A    between atoms: _437  and  _439
REMARK  173  A    between atoms: _439  and  _440
REMARK  174  A    between atoms: _442  and  _444
REMARK  175  A    between atoms: _444  and  _445
REMARK  176  A    between atoms: _444  and  _447
REMARK  177  A    between atoms: _447  and  _448
REMARK  178  A    between atoms: _453  and  _455
REMARK  179  A    between atoms: _455  and  _456
REMARK  180  A    between atoms: _455  and  _458
REMARK  181  A    between atoms: _458  and  _459
REMARK  182  A    between atoms: _463  and  _464
REMARK  183  A    between atoms: _469  and  _471
REMARK  184  A    between atoms: _471  and  _472
REMARK  185  A    between atoms: _475  and  _477
REMARK  186  A    between atoms: _477  and  _478
REMARK  187  A    between atoms: _477  and  _480
REMARK  188  A    between atoms: _480  and  _481
REMARK  189  A    between atoms: _486  and  _488
REMARK  190  A    between atoms: _488  and  _489
REMARK  191  A    between atoms: _488  and  _491
REMARK  192  A    between atoms: _491  and  _492
REMARK  193  A    between atoms: _495  and  _497
REMARK  194  A    between atoms: _497  and  _498
REMARK  195  A    between atoms: _497  and  _500
REMARK  196  A    between atoms: _500  and  _501
REMARK  197  A    between atoms: _503  and  _505
REMARK  198  A    between atoms: _505  and  _506
REMARK  199  A    between atoms: _505  and  _508
REMARK  200  A    between atoms: _508  and  _509
REMARK  201  A    between atoms: _515  and  _517
REMARK  202  A    between atoms: _517  and  _518
REMARK  203  A    between atoms: _517  and  _520
REMARK  204  A    between atoms: _520  and  _521
REMARK  205  A    between atoms: _521  and  _522
REMARK  206  A    between atoms: _525  and  _527
REMARK  207  A    between atoms: _527  and  _528
REMARK  208  A    between atoms: _527  and  _530
REMARK  209  A    between atoms: _533  and  _535
REMARK  210  A    between atoms: _535  and  _536
REMARK  211  A    between atoms: _535  and  _538
REMARK  212  A    between atoms: _538  and  _539
REMARK  213  A    between atoms: _542  and  _544
REMARK  214  A    between atoms: _544  and  _545
REMARK  215  A    between atoms: _544  and  _547
REMARK  216  A    between atoms: _550  and  _552
REMARK  217  A    between atoms: _552  and  _553
REMARK  218  A    between atoms: _556  and  _558
REMARK  219  A    between atoms: _558  and  _559
REMARK  220  A    between atoms: _558  and  _561
REMARK  221  A    between atoms: _561  and  _562
REMARK  222  A    between atoms: _564  and  _566
REMARK  223  A    between atoms: _566  and  _567
REMARK  224  A    between atoms: _566  and  _569
REMARK  225  A    between atoms: _569  and  _570
REMARK  226  A    between atoms: _572  and  _574
REMARK  227  A    between atoms: _574  and  _575
REMARK  228  A    between atoms: _574  and  _577
REMARK  229  A    between atoms: _577  and  _578
REMARK  230  A    between atoms: _581  and  _583
REMARK  231  A    between atoms: _583  and  _584
REMARK  232  A    between atoms: _583  and  _586
REMARK  233  A    between atoms: _586  and  _587
REMARK  234  A    between atoms: _592  and  _593
REMARK  235  A    between atoms: _595  and  _597
REMARK  236  A    between atoms: _597  and  _598
REMARK  237  A    between atoms: _597  and  _600
REMARK  238  A    between atoms: _600  and  _601
REMARK  239  A    between atoms: _607  and  _609
REMARK  240  A    between atoms: _609  and  _610
REMARK  241  A    between atoms: _609  and  _612
REMARK  242  A    between atoms: _612  and  _613
REMARK  243  A    between atoms: _615  and  _617
REMARK  244  A    between atoms: _617  and  _618
REMARK  245  A    between atoms: _617  and  _620
REMARK  246  A    between atoms: _620  and  _621
REMARK  247  A    between atoms: _624  and  _626
REMARK  248  A    between atoms: _626  and  _627
REMARK  249  A    between atoms: _626  and  _629
REMARK  250  A    between atoms: _629  and  _630
REMARK  251  A    between atoms: _635  and  _636
REMARK                            x       y       z     vdW  Elec       q    Type
REMARK                         _______ _______ _______ _____ _____    ______ ____
ROOT
ATOM      1  O   HOH     1      11.117  -0.238  -3.974  0.00  0.00    +0.000 OA
ENDROOT
TORSDOF 0
REMARK  Name = ../refined-set-2016/2ihj/2ihj_pocket.pdb
REMARK  251 active torsions:
REMARK  status: ('A' for Active; 'I' for Inactive)
REMARK    1  A    between atoms: _1  and  _3
REMARK    2  A    between atoms: _3  and  _4
REMARK    3  A    between atoms: _3  and  _6
REMARK    4  A    between atoms: _6  and  _7
REMARK    5  A    between atoms: _11  and  _12
REMARK    6  A    between atoms: _17  and  _19
REMARK    7  A    between atoms: _19  and  _20
REMARK    8  A    between atoms: _23  and  _25
REMARK    9  A    between atoms: _25  and  _26
REMARK   10  A    between atoms: _25  and  _28
REMARK   11  A    between atoms: _28  and  _29
REMARK   12  A    between atoms: _31  and  _33
REMARK   13  A    between atoms: _33  and  _34
REMARK   14  A    between atoms: _33  and  _36
REMARK   15  A    between atoms: _36  and  _37
REMARK   16  A    between atoms: _41  and  _42
REMARK   17  A    between atoms: _47  and  _49
REMARK   18  A    between atoms: _49  and  _50
REMARK   19  A    between atoms: _49  and  _52
REMARK   20  A    between atoms: _52  and  _53
REMARK   21  A    between atoms: _56  and  _58
REMARK   22  A    between atoms: _58  and  _59
REMARK   23  A    between atoms: _58  and  _61
REMARK   24  A    between atoms: _61  and  _62
REMARK   25  A    between atoms: _62  and  _63
REMARK   26  A    between atoms: _63  and  _64
REMARK   27  A    between atoms: _73  and  _75
REMARK   28  A    between atoms: _75  and  _76
REMARK   29  A    between atoms: _75  and  _78
REMARK   30  A    between atoms: _78  and  _79
REMARK   31  A    between atoms: _85  and  _87
REMARK   32  A    between atoms: _87  and  _88
REMARK   33  A    between atoms: _87  and  _90
REMARK   34  A    between atoms: _90  and  _91
REMARK   35  A    between atoms: _96  and  _98
REMARK   36  A    between atoms: _98  and  _99
REMARK   37  A    between atoms: _102  and  _104
REMARK   38  A    between atoms: _104  and  _105
REMARK   39  A    between atoms: _104  and  _107
REMARK   40  A    between atoms: _107  and  _108
REMARK   41  A    between atoms: _113  and  _115
REMARK   42  A    between atoms: _115  and  _116
REMARK   43  A    between atoms: _115  and  _118
REMARK   44  A    between atoms: _118  and  _119
REMARK   45  A    between atoms: _122  and  _124
REMARK   46  A    between atoms: _124  and  _125
REMARK   47  A    between atoms: _124  and  _127
REMARK   48  A    between atoms: _127  and  _128
REMARK   49  A    between atoms: _131  and  _133
REMARK   50  A    between atoms: _133  and  _134
REMARK   51  A    between atoms: _136  and  _138
REMARK   52  A    between atoms: _138  and  _139
REMARK   53  A    between atoms: _138  and  _141
REMARK   54  A    between atoms: _141  and  _142
REMARK   55  A    between atoms: _144  and  _146
REMARK   56  A    between atoms: _146  and  _147
REMARK   57  A    between atoms: _146  and  _149
REMARK   58  A    between atoms: _149  and  _150
REMARK   59  A    between atoms: _150  and  _151
REMARK   60  A    between atoms: _153  and  _155
REMARK   61  A    between atoms: _155  and  _156
REMARK   62  A    between atoms: _155  and  _158
REMARK   63  A    between atoms: _158  and  _159
REMARK   64  A    between atoms: _159  and  _160
REMARK   65  A    between atoms: _163  and  _165
REMARK   66  A    between atoms: _165  and  _166
REMARK   67  A    between atoms: _165  and  _168
REMARK   68  A    between atoms: _168  and  _169
REMARK   69  A    between atoms: _174  and  _175
REMARK   70  A    between atoms: _177  and  _179
REMARK   71  A    between atoms: _179  and  _180
REMARK   72  A    between atoms: _179  and  _182
REMARK   73  A    between atoms: _185  and  _187
REMARK   74  A    between atoms: _187  and  _188
REMARK   75  A    between atoms: _187  and  _190
REMARK   76  A    between atoms: _190  and  _191
REMARK   77  A    between atoms: _194  and  _196
REMARK   78  A    between atoms: _196  and  _197
REMARK   79  A    between atoms: _196  and  _199
REMARK   80  A    between atoms: _199  and  _200
REMARK   81  A    between atoms: _200  and  _201
REMARK   82  A    between atoms: _201  and  _202
REMARK   83  A    between atoms: _202  and  _203
REMARK   84  A    between atoms: _207  and  _209
REMARK   85  A    between atoms: _209  and  _210
REMARK   86  A    between atoms: _209  and  _212
REMARK   87  A    between atoms: _212  and  _213
REMARK   88  A    between atoms: _216  and  _218
REMARK   89  A    between atoms: _218  and  _219
REMARK   90  A    between atoms: _218  and  _221
REMARK   91  A    between atoms: _221  and  _222
REMARK   92  A    between atoms: _222  and  _223
REMARK   93  A    between atoms: _225  and  _227
REMARK   94  A    between atoms: _227  and  _228
REMARK   95  A    between atoms: _227  and  _230
REMARK   96  A    between atoms: _230  and  _231
REMARK   97  A    between atoms: _241  and  _243
REMARK   98  A    between atoms: _243  and  _244
REMARK   99  A    between atoms: _243  and  _246
REMARK  100  A    between atoms: _246  and  _247
REMARK  101  A    between atoms: _250  and  _252
REMARK  102  A    between atoms: _252  and  _253
REMARK  103  A    between atoms: _252  and  _255
REMARK  104  A    between atoms: _255  and  _256
REMARK  105  A    between atoms: _262  and  _264
REMARK  106  A    between atoms: _264  and  _265
REMARK  107  A    between atoms: _264  and  _267
REMARK  108  A    between atoms: _267  and  _268
REMARK  109  A    between atoms: _271  and  _273
REMARK  110  A    between atoms: _273  and  _274
REMARK  111  A    between atoms: _276  and  _278
REMARK  112  A    between atoms: _278  and  _279
REMARK  113  A    between atoms: _278  and  _281
REMARK  114  A    between atoms: _281  and  _282
REMARK  115  A    between atoms: _285  and  _287
REMARK  116  A    between atoms: _287  and  _288
REMARK  117  A    between atoms: _287  and  _290
REMARK  118  A    between atoms: _290  and  _291
REMARK  119  A    between atoms: _294  and  _296
REMARK  120  A    between atoms: _296  and  _297
REMARK  121  A    between atoms: _296  and  _299
REMARK  122  A    between atoms: _299  and  _300
REMARK  123  A    between atoms: _303  and  _305
REMARK  124  A    between atoms: _305  and  _306
REMARK  125  A    between atoms: _305  and  _308
REMARK  126  A    between atoms: _308  and  _309
REMARK  127  A    between atoms: _319  and  _321
REMARK  128  A    between atoms: _321  and  _322
REMARK  129  A    between atoms: _321  and  _324
REMARK  130  A    between atoms: _324  and  _325
REMARK  131  A    between atoms: _325  and  _326
REMARK  132  A    between atoms: _329  and  _331
REMARK  133  A    between atoms: _331  and  _332
REMARK  134  A    between atoms: _331  and  _334
REMARK  135  A    between atoms: _334  and  _335
REMARK  136  A    between atoms: _335  and  _336
REMARK  137  A    between atoms: _336  and  _337
REMARK  138  A    between atoms: _346  and  _348
REMARK  139  A    between atoms: _348  and  _349
REMARK  140  A    between atoms: _348  and  _351
REMARK  141  A    between atoms: _351  and  _352
REMARK  142  A    between atoms: _357  and  _358
REMARK  143  A    between atoms: _360  and  _362
REMARK  144  A    between atoms: _362  and  _363
REMARK  145  A    between atoms: _362  and  _365
REMARK  146  A    between atoms: _365  and  _366
REMARK  147  A    between atoms: _366  and  _367
REMARK  148  A    between atoms: _372  and  _374
REMARK  149  A    between atoms: _374  and  _375
REMARK  150  A    between atoms: _374  and  _377
REMARK  151  A    between atoms: _377  and  _378
REMARK  152  A    between atoms: _384  and  _386
REMARK  153  A    between atoms: _386  and  _387
REMARK  154  A    between atoms: _386  and  _389
REMARK  155  A    between atoms: _389  and  _390
REMARK  156  A    between atoms: _390  and  _391
REMARK  157  A    between atoms: _391  and  _392
REMARK  158  A    between atoms: _392  and  _393
REMARK  159  A    between atoms: _397  and  _399
REMARK  160  A    between atoms: _399  and  _400
REMARK  161  A    between atoms: _402  and  _404
REMARK  162  A    between atoms: _404  and  _405
REMARK  163  A    between atoms: _404  and  _407
REMARK  164  A    between atoms: _407  and  _408
REMARK  165  A    between atoms: _414  and  _415
REMARK  166  A    between atoms: _420  and  _422
REMARK  167  A    between atoms: _422  and  _423
REMARK  168  A    between atoms: _422  and  _425
REMARK  169  A    between atoms: _425  and  _426
REMARK  170  A    between atoms: _426  and  _427
REMARK  171  A    between atoms: _427  and  _428
REMARK  172  A    between atoms: _437  and  _439
REMARK  173  A    between atoms: _439  and  _440
REMARK  174  A    between atoms: _442  and  _444
REMARK  175  A    between atoms: _444  and  _445
REMARK  176  A    between atoms: _444  and  _447
REMARK  177  A    between atoms: _447  and  _448
REMARK  178  A    between atoms: _453  and  _455
REMARK  179  A    between atoms: _455  and  _456
REMARK  180  A    between atoms: _455  and  _458
REMARK  181  A    between atoms: _458  and  _459
REMARK  182  A    between atoms: _463  and  _464
REMARK  183  A    between atoms: _469  and  _471
REMARK  184  A    between atoms: _471  and  _472
REMARK  185  A    between atoms: _475  and  _477
REMARK  186  A    between atoms: _477  and  _478
REMARK  187  A    between atoms: _477  and  _480
REMARK  188  A    between atoms: _480  and  _481
REMARK  189  A    between atoms: _486  and  _488
REMARK  190  A    between atoms: _488  and  _489
REMARK  191  A    between atoms: _488  and  _491
REMARK  192  A    between atoms: _491  and  _492
REMARK  193  A    between atoms: _495  and  _497
REMARK  194  A    between atoms: _497  and  _498
REMARK  195  A    between atoms: _497  and  _500
REMARK  196  A    between atoms: _500  and  _501
REMARK  197  A    between atoms: _503  and  _505
REMARK  198  A    between atoms: _505  and  _506
REMARK  199  A    between atoms: _505  and  _508
REMARK  200  A    between atoms: _508  and  _509
REMARK  201  A    between atoms: _515  and  _517
REMARK  202  A    between atoms: _517  and  _518
REMARK  203  A    between atoms: _517  and  _520
REMARK  204  A    between atoms: _520  and  _521
REMARK  205  A    between atoms: _521  and  _522
REMARK  206  A    between atoms: _525  and  _527
REMARK  207  A    between atoms: _527  and  _528
REMARK  208  A    between atoms: _527  and  _530
REMARK  209  A    between atoms: _533  and  _535
REMARK  210  A    between atoms: _535  and  _536
REMARK  211  A    between atoms: _535  and  _538
REMARK  212  A    between atoms: _538  and  _539
REMARK  213  A    between atoms: _542  and  _544
REMARK  214  A    between atoms: _544  and  _545
REMARK  215  A    between atoms: _544  and  _547
REMARK  216  A    between atoms: _550  and  _552
REMARK  217  A    between atoms: _552  and  _553
REMARK  218  A    between atoms: _556  and  _558
REMARK  219  A    between atoms: _558  and  _559
REMARK  220  A    between atoms: _558  and  _561
REMARK  221  A    between atoms: _561  and  _562
REMARK  222  A    between atoms: _564  and  _566
REMARK  223  A    between atoms: _566  and  _567
REMARK  224  A    between atoms: _566  and  _569
REMARK  225  A    between atoms: _569  and  _570
REMARK  226  A    between atoms: _572  and  _574
REMARK  227  A    between atoms: _574  and  _575
REMARK  228  A    between atoms: _574  and  _577
REMARK  229  A    between atoms: _577  and  _578
REMARK  230  A    between atoms: _581  and  _583
REMARK  231  A    between atoms: _583  and  _584
REMARK  232  A    between atoms: _583  and  _586
REMARK  233  A    between atoms: _586  and  _587
REMARK  234  A    between atoms: _592  and  _593
REMARK  235  A    between atoms: _595  and  _597
REMARK  236  A    between atoms: _597  and  _598
REMARK  237  A    between atoms: _597  and  _600
REMARK  238  A    between atoms: _600  and  _601
REMARK  239  A    between atoms: _607  and  _609
REMARK  240  A    between atoms: _609  and  _610
REMARK  241  A    between atoms: _609  and  _612
REMARK  242  A    between atoms: _612  and  _613
REMARK  243  A    between atoms: _615  and  _617
REMARK  244  A    between atoms: _617  and  _618
REMARK  245  A    between atoms: _617  and  _620
REMARK  246  A    between atoms: _620  and  _621
REMARK  247  A    between atoms: _624  and  _626
REMARK  248  A    between atoms: _626  and  _627
REMARK  249  A    between atoms: _626  and  _629
REMARK  250  A    between atoms: _629  and  _630
REMARK  251  A    between atoms: _635  and  _636
REMARK                            x       y       z     vdW  Elec       q    Type
REMARK                         _______ _______ _______ _____ _____    ______ ____
ROOT
ATOM      1  O   HOH     1       9.260   2.377  -6.607  0.00  0.00    +0.000 OA
ENDROOT
TORSDOF 0
REMARK  Name = ../refined-set-2016/2ihj/2ihj_pocket.pdb
REMARK  251 active torsions:
REMARK  status: ('A' for Active; 'I' for Inactive)
REMARK    1  A    between atoms: _1  and  _3
REMARK    2  A    between atoms: _3  and  _4
REMARK    3  A    between atoms: _3  and  _6
REMARK    4  A    between atoms: _6  and  _7
REMARK    5  A    between atoms: _11  and  _12
REMARK    6  A    between atoms: _17  and  _19
REMARK    7  A    between atoms: _19  and  _20
REMARK    8  A    between atoms: _23  and  _25
REMARK    9  A    between atoms: _25  and  _26
REMARK   10  A    between atoms: _25  and  _28
REMARK   11  A    between atoms: _28  and  _29
REMARK   12  A    between atoms: _31  and  _33
REMARK   13  A    between atoms: _33  and  _34
REMARK   14  A    between atoms: _33  and  _36
REMARK   15  A    between atoms: _36  and  _37
REMARK   16  A    between atoms: _41  and  _42
REMARK   17  A    between atoms: _47  and  _49
REMARK   18  A    between atoms: _49  and  _50
REMARK   19  A    between atoms: _49  and  _52
REMARK   20  A    between atoms: _52  and  _53
REMARK   21  A    between atoms: _56  and  _58
REMARK   22  A    between atoms: _58  and  _59
REMARK   23  A    between atoms: _58  and  _61
REMARK   24  A    between atoms: _61  and  _62
REMARK   25  A    between atoms: _62  and  _63
REMARK   26  A    between atoms: _63  and  _64
REMARK   27  A    between atoms: _73  and  _75
REMARK   28  A    between atoms: _75  and  _76
REMARK   29  A    between atoms: _75  and  _78
REMARK   30  A    between atoms: _78  and  _79
REMARK   31  A    between atoms: _85  and  _87
REMARK   32  A    between atoms: _87  and  _88
REMARK   33  A    between atoms: _87  and  _90
REMARK   34  A    between atoms: _90  and  _91
REMARK   35  A    between atoms: _96  and  _98
REMARK   36  A    between atoms: _98  and  _99
REMARK   37  A    between atoms: _102  and  _104
REMARK   38  A    between atoms: _104  and  _105
REMARK   39  A    between atoms: _104  and  _107
REMARK   40  A    between atoms: _107  and  _108
REMARK   41  A    between atoms: _113  and  _115
REMARK   42  A    between atoms: _115  and  _116
REMARK   43  A    between atoms: _115  and  _118
REMARK   44  A    between atoms: _118  and  _119
REMARK   45  A    between atoms: _122  and  _124
REMARK   46  A    between atoms: _124  and  _125
REMARK   47  A    between atoms: _124  and  _127
REMARK   48  A    between atoms: _127  and  _128
REMARK   49  A    between atoms: _131  and  _133
REMARK   50  A    between atoms: _133  and  _134
REMARK   51  A    between atoms: _136  and  _138
REMARK   52  A    between atoms: _138  and  _139
REMARK   53  A    between atoms: _138  and  _141
REMARK   54  A    between atoms: _141  and  _142
REMARK   55  A    between atoms: _144  and  _146
REMARK   56  A    between atoms: _146  and  _147
REMARK   57  A    between atoms: _146  and  _149
REMARK   58  A    between atoms: _149  and  _150
REMARK   59  A    between atoms: _150  and  _151
REMARK   60  A    between atoms: _153  and  _155
REMARK   61  A    between atoms: _155  and  _156
REMARK   62  A    between atoms: _155  and  _158
REMARK   63  A    between atoms: _158  and  _159
REMARK   64  A    between atoms: _159  and  _160
REMARK   65  A    between atoms: _163  and  _165
REMARK   66  A    between atoms: _165  and  _166
REMARK   67  A    between atoms: _165  and  _168
REMARK   68  A    between atoms: _168  and  _169
REMARK   69  A    between atoms: _174  and  _175
REMARK   70  A    between atoms: _177  and  _179
REMARK   71  A    between atoms: _179  and  _180
REMARK   72  A    between atoms: _179  and  _182
REMARK   73  A    between atoms: _185  and  _187
REMARK   74  A    between atoms: _187  and  _188
REMARK   75  A    between atoms: _187  and  _190
REMARK   76  A    between atoms: _190  and  _191
REMARK   77  A    between atoms: _194  and  _196
REMARK   78  A    between atoms: _196  and  _197
REMARK   79  A    between atoms: _196  and  _199
REMARK   80  A    between atoms: _199  and  _200
REMARK   81  A    between atoms: _200  and  _201
REMARK   82  A    between atoms: _201  and  _202
REMARK   83  A    between atoms: _202  and  _203
REMARK   84  A    between atoms: _207  and  _209
REMARK   85  A    between atoms: _209  and  _210
REMARK   86  A    between atoms: _209  and  _212
REMARK   87  A    between atoms: _212  and  _213
REMARK   88  A    between atoms: _216  and  _218
REMARK   89  A    between atoms: _218  and  _219
REMARK   90  A    between atoms: _218  and  _221
REMARK   91  A    between atoms: _221  and  _222
REMARK   92  A    between atoms: _222  and  _223
REMARK   93  A    between atoms: _225  and  _227
REMARK   94  A    between atoms: _227  and  _228
REMARK   95  A    between atoms: _227  and  _230
REMARK   96  A    between atoms: _230  and  _231
REMARK   97  A    between atoms: _241  and  _243
REMARK   98  A    between atoms: _243  and  _244
REMARK   99  A    between atoms: _243  and  _246
REMARK  100  A    between atoms: _246  and  _247
REMARK  101  A    between atoms: _250  and  _252
REMARK  102  A    between atoms: _252  and  _253
REMARK  103  A    between atoms: _252  and  _255
REMARK  104  A    between atoms: _255  and  _256
REMARK  105  A    between atoms: _262  and  _264
REMARK  106  A    between atoms: _264  and  _265
REMARK  107  A    between atoms: _264  and  _267
REMARK  108  A    between atoms: _267  and  _268
REMARK  109  A    between atoms: _271  and  _273
REMARK  110  A    between atoms: _273  and  _274
REMARK  111  A    between atoms: _276  and  _278
REMARK  112  A    between atoms: _278  and  _279
REMARK  113  A    between atoms: _278  and  _281
REMARK  114  A    between atoms: _281  and  _282
REMARK  115  A    between atoms: _285  and  _287
REMARK  116  A    between atoms: _287  and  _288
REMARK  117  A    between atoms: _287  and  _290
REMARK  118  A    between atoms: _290  and  _291
REMARK  119  A    between atoms: _294  and  _296
REMARK  120  A    between atoms: _296  and  _297
REMARK  121  A    between atoms: _296  and  _299
REMARK  122  A    between atoms: _299  and  _300
REMARK  123  A    between atoms: _303  and  _305
REMARK  124  A    between atoms: _305  and  _306
REMARK  125  A    between atoms: _305  and  _308
REMARK  126  A    between atoms: _308  and  _309
REMARK  127  A    between atoms: _319  and  _321
REMARK  128  A    between atoms: _321  and  _322
REMARK  129  A    between atoms: _321  and  _324
REMARK  130  A    between atoms: _324  and  _325
REMARK  131  A    between atoms: _325  and  _326
REMARK  132  A    between atoms: _329  and  _331
REMARK  133  A    between atoms: _331  and  _332
REMARK  134  A    between atoms: _331  and  _334
REMARK  135  A    between atoms: _334  and  _335
REMARK  136  A    between atoms: _335  and  _336
REMARK  137  A    between atoms: _336  and  _337
REMARK  138  A    between atoms: _346  and  _348
REMARK  139  A    between atoms: _348  and  _349
REMARK  140  A    between atoms: _348  and  _351
REMARK  141  A    between atoms: _351  and  _352
REMARK  142  A    between atoms: _357  and  _358
REMARK  143  A    between atoms: _360  and  _362
REMARK  144  A    between atoms: _362  and  _363
REMARK  145  A    between atoms: _362  and  _365
REMARK  146  A    between atoms: _365  and  _366
REMARK  147  A    between atoms: _366  and  _367
REMARK  148  A    between atoms: _372  and  _374
REMARK  149  A    between atoms: _374  and  _375
REMARK  150  A    between atoms: _374  and  _377
REMARK  151  A    between atoms: _377  and  _378
REMARK  152  A    between atoms: _384  and  _386
REMARK  153  A    between atoms: _386  and  _387
REMARK  154  A    between atoms: _386  and  _389
REMARK  155  A    between atoms: _389  and  _390
REMARK  156  A    between atoms: _390  and  _391
REMARK  157  A    between atoms: _391  and  _392
REMARK  158  A    between atoms: _392  and  _393
REMARK  159  A    between atoms: _397  and  _399
REMARK  160  A    between atoms: _399  and  _400
REMARK  161  A    between atoms: _402  and  _404
REMARK  162  A    between atoms: _404  and  _405
REMARK  163  A    between atoms: _404  and  _407
REMARK  164  A    between atoms: _407  and  _408
REMARK  165  A    between atoms: _414  and  _415
REMARK  166  A    between atoms: _420  and  _422
REMARK  167  A    between atoms: _422  and  _423
REMARK  168  A    between atoms: _422  and  _425
REMARK  169  A    between atoms: _425  and  _426
REMARK  170  A    between atoms: _426  and  _427
REMARK  171  A    between atoms: _427  and  _428
REMARK  172  A    between atoms: _437  and  _439
REMARK  173  A    between atoms: _439  and  _440
REMARK  174  A    between atoms: _442  and  _444
REMARK  175  A    between atoms: _444  and  _445
REMARK  176  A    between atoms: _444  and  _447
REMARK  177  A    between atoms: _447  and  _448
REMARK  178  A    between atoms: _453  and  _455
REMARK  179  A    between atoms: _455  and  _456
REMARK  180  A    between atoms: _455  and  _458
REMARK  181  A    between atoms: _458  and  _459
REMARK  182  A    between atoms: _463  and  _464
REMARK  183  A    between atoms: _469  and  _471
REMARK  184  A    between atoms: _471  and  _472
REMARK  185  A    between atoms: _475  and  _477
REMARK  186  A    between atoms: _477  and  _478
REMARK  187  A    between atoms: _477  and  _480
REMARK  188  A    between atoms: _480  and  _481
REMARK  189  A    between atoms: _486  and  _488
REMARK  190  A    between atoms: _488  and  _489
REMARK  191  A    between atoms: _488  and  _491
REMARK  192  A    between atoms: _491  and  _492
REMARK  193  A    between atoms: _495  and  _497
REMARK  194  A    between atoms: _497  and  _498
REMARK  195  A    between atoms: _497  and  _500
REMARK  196  A    between atoms: _500  and  _501
REMARK  197  A    between atoms: _503  and  _505
REMARK  198  A    between atoms: _505  and  _506
REMARK  199  A    between atoms: _505  and  _508
REMARK  200  A    between atoms: _508  and  _509
REMARK  201  A    between atoms: _515  and  _517
REMARK  202  A    between atoms: _517  and  _518
REMARK  203  A    between atoms: _517  and  _520
REMARK  204  A    between atoms: _520  and  _521
REMARK  205  A    between atoms: _521  and  _522
REMARK  206  A    between atoms: _525  and  _527
REMARK  207  A    between atoms: _527  and  _528
REMARK  208  A    between atoms: _527  and  _530
REMARK  209  A    between atoms: _533  and  _535
REMARK  210  A    between atoms: _535  and  _536
REMARK  211  A    between atoms: _535  and  _538
REMARK  212  A    between atoms: _538  and  _539
REMARK  213  A    between atoms: _542  and  _544
REMARK  214  A    between atoms: _544  and  _545
REMARK  215  A    between atoms: _544  and  _547
REMARK  216  A    between atoms: _550  and  _552
REMARK  217  A    between atoms: _552  and  _553
REMARK  218  A    between atoms: _556  and  _558
REMARK  219  A    between atoms: _558  and  _559
REMARK  220  A    between atoms: _558  and  _561
REMARK  221  A    between atoms: _561  and  _562
REMARK  222  A    between atoms: _564  and  _566
REMARK  223  A    between atoms: _566  and  _567
REMARK  224  A    between atoms: _566  and  _569
REMARK  225  A    between atoms: _569  and  _570
REMARK  226  A    between atoms: _572  and  _574
REMARK  227  A    between atoms: _574  and  _575
REMARK  228  A    between atoms: _574  and  _577
REMARK  229  A    between atoms: _577  and  _578
REMARK  230  A    between atoms: _581  and  _583
REMARK  231  A    between atoms: _583  and  _584
REMARK  232  A    between atoms: _583  and  _586
REMARK  233  A    between atoms: _586  and  _587
REMARK  234  A    between atoms: _592  and  _593
REMARK  235  A    between atoms: _595  and  _597
REMARK  236  A    between atoms: _597  and  _598
REMARK  237  A    between atoms: _597  and  _600
REMARK  238  A    between atoms: _600  and  _601
REMARK  239  A    between atoms: _607  and  _609
REMARK  240  A    between atoms: _609  and  _610
REMARK  241  A    between atoms: _609  and  _612
REMARK  242  A    between atoms: _612  and  _613
REMARK  243  A    between atoms: _615  and  _617
REMARK  244  A    between atoms: _617  and  _618
REMARK  245  A    between atoms: _617  and  _620
REMARK  246  A    between atoms: _620  and  _621
REMARK  247  A    between atoms: _624  and  _626
REMARK  248  A    between atoms: _626  and  _627
REMARK  249  A    between atoms: _626  and  _629
REMARK  250  A    between atoms: _629  and  _630
REMARK  251  A    between atoms: _635  and  _636
REMARK                            x       y       z     vdW  Elec       q    Type
REMARK                         _______ _______ _______ _____ _____    ______ ____
ROOT
ATOM      1  O   HOH     1       7.482   4.267  -6.382  0.00  0.00    +0.000 OA
ENDROOT
TORSDOF 0
REMARK  Name = ../refined-set-2016/2ihj/2ihj_pocket.pdb
REMARK  251 active torsions:
REMARK  status: ('A' for Active; 'I' for Inactive)
REMARK    1  A    between atoms: _1  and  _3
REMARK    2  A    between atoms: _3  and  _4
REMARK    3  A    between atoms: _3  and  _6
REMARK    4  A    between atoms: _6  and  _7
REMARK    5  A    between atoms: _11  and  _12
REMARK    6  A    between atoms: _17  and  _19
REMARK    7  A    between atoms: _19  and  _20
REMARK    8  A    between atoms: _23  and  _25
REMARK    9  A    between atoms: _25  and  _26
REMARK   10  A    between atoms: _25  and  _28
REMARK   11  A    between atoms: _28  and  _29
REMARK   12  A    between atoms: _31  and  _33
REMARK   13  A    between atoms: _33  and  _34
REMARK   14  A    between atoms: _33  and  _36
REMARK   15  A    between atoms: _36  and  _37
REMARK   16  A    between atoms: _41  and  _42
REMARK   17  A    between atoms: _47  and  _49
REMARK   18  A    between atoms: _49  and  _50
REMARK   19  A    between atoms: _49  and  _52
REMARK   20  A    between atoms: _52  and  _53
REMARK   21  A    between atoms: _56  and  _58
REMARK   22  A    between atoms: _58  and  _59
REMARK   23  A    between atoms: _58  and  _61
REMARK   24  A    between atoms: _61  and  _62
REMARK   25  A    between atoms: _62  and  _63
REMARK   26  A    between atoms: _63  and  _64
REMARK   27  A    between atoms: _73  and  _75
REMARK   28  A    between atoms: _75  and  _76
REMARK   29  A    between atoms: _75  and  _78
REMARK   30  A    between atoms: _78  and  _79
REMARK   31  A    between atoms: _85  and  _87
REMARK   32  A    between atoms: _87  and  _88
REMARK   33  A    between atoms: _87  and  _90
REMARK   34  A    between atoms: _90  and  _91
REMARK   35  A    between atoms: _96  and  _98
REMARK   36  A    between atoms: _98  and  _99
REMARK   37  A    between atoms: _102  and  _104
REMARK   38  A    between atoms: _104  and  _105
REMARK   39  A    between atoms: _104  and  _107
REMARK   40  A    between atoms: _107  and  _108
REMARK   41  A    between atoms: _113  and  _115
REMARK   42  A    between atoms: _115  and  _116
REMARK   43  A    between atoms: _115  and  _118
REMARK   44  A    between atoms: _118  and  _119
REMARK   45  A    between atoms: _122  and  _124
REMARK   46  A    between atoms: _124  and  _125
REMARK   47  A    between atoms: _124  and  _127
REMARK   48  A    between atoms: _127  and  _128
REMARK   49  A    between atoms: _131  and  _133
REMARK   50  A    between atoms: _133  and  _134
REMARK   51  A    between atoms: _136  and  _138
REMARK   52  A    between atoms: _138  and  _139
REMARK   53  A    between atoms: _138  and  _141
REMARK   54  A    between atoms: _141  and  _142
REMARK   55  A    between atoms: _144  and  _146
REMARK   56  A    between atoms: _146  and  _147
REMARK   57  A    between atoms: _146  and  _149
REMARK   58  A    between atoms: _149  and  _150
REMARK   59  A    between atoms: _150  and  _151
REMARK   60  A    between atoms: _153  and  _155
REMARK   61  A    between atoms: _155  and  _156
REMARK   62  A    between atoms: _155  and  _158
REMARK   63  A    between atoms: _158  and  _159
REMARK   64  A    between atoms: _159  and  _160
REMARK   65  A    between atoms: _163  and  _165
REMARK   66  A    between atoms: _165  and  _166
REMARK   67  A    between atoms: _165  and  _168
REMARK   68  A    between atoms: _168  and  _169
REMARK   69  A    between atoms: _174  and  _175
REMARK   70  A    between atoms: _177  and  _179
REMARK   71  A    between atoms: _179  and  _180
REMARK   72  A    between atoms: _179  and  _182
REMARK   73  A    between atoms: _185  and  _187
REMARK   74  A    between atoms: _187  and  _188
REMARK   75  A    between atoms: _187  and  _190
REMARK   76  A    between atoms: _190  and  _191
REMARK   77  A    between atoms: _194  and  _196
REMARK   78  A    between atoms: _196  and  _197
REMARK   79  A    between atoms: _196  and  _199
REMARK   80  A    between atoms: _199  and  _200
REMARK   81  A    between atoms: _200  and  _201
REMARK   82  A    between atoms: _201  and  _202
REMARK   83  A    between atoms: _202  and  _203
REMARK   84  A    between atoms: _207  and  _209
REMARK   85  A    between atoms: _209  and  _210
REMARK   86  A    between atoms: _209  and  _212
REMARK   87  A    between atoms: _212  and  _213
REMARK   88  A    between atoms: _216  and  _218
REMARK   89  A    between atoms: _218  and  _219
REMARK   90  A    between atoms: _218  and  _221
REMARK   91  A    between atoms: _221  and  _222
REMARK   92  A    between atoms: _222  and  _223
REMARK   93  A    between atoms: _225  and  _227
REMARK   94  A    between atoms: _227  and  _228
REMARK   95  A    between atoms: _227  and  _230
REMARK   96  A    between atoms: _230  and  _231
REMARK   97  A    between atoms: _241  and  _243
REMARK   98  A    between atoms: _243  and  _244
REMARK   99  A    between atoms: _243  and  _246
REMARK  100  A    between atoms: _246  and  _247
REMARK  101  A    between atoms: _250  and  _252
REMARK  102  A    between atoms: _252  and  _253
REMARK  103  A    between atoms: _252  and  _255
REMARK  104  A    between atoms: _255  and  _256
REMARK  105  A    between atoms: _262  and  _264
REMARK  106  A    between atoms: _264  and  _265
REMARK  107  A    between atoms: _264  and  _267
REMARK  108  A    between atoms: _267  and  _268
REMARK  109  A    between atoms: _271  and  _273
REMARK  110  A    between atoms: _273  and  _274
REMARK  111  A    between atoms: _276  and  _278
REMARK  112  A    between atoms: _278  and  _279
REMARK  113  A    between atoms: _278  and  _281
REMARK  114  A    between atoms: _281  and  _282
REMARK  115  A    between atoms: _285  and  _287
REMARK  116  A    between atoms: _287  and  _288
REMARK  117  A    between atoms: _287  and  _290
REMARK  118  A    between atoms: _290  and  _291
REMARK  119  A    between atoms: _294  and  _296
REMARK  120  A    between atoms: _296  and  _297
REMARK  121  A    between atoms: _296  and  _299
REMARK  122  A    between atoms: _299  and  _300
REMARK  123  A    between atoms: _303  and  _305
REMARK  124  A    between atoms: _305  and  _306
REMARK  125  A    between atoms: _305  and  _308
REMARK  126  A    between atoms: _308  and  _309
REMARK  127  A    between atoms: _319  and  _321
REMARK  128  A    between atoms: _321  and  _322
REMARK  129  A    between atoms: _321  and  _324
REMARK  130  A    between atoms: _324  and  _325
REMARK  131  A    between atoms: _325  and  _326
REMARK  132  A    between atoms: _329  and  _331
REMARK  133  A    between atoms: _331  and  _332
REMARK  134  A    between atoms: _331  and  _334
REMARK  135  A    between atoms: _334  and  _335
REMARK  136  A    between atoms: _335  and  _336
REMARK  137  A    between atoms: _336  and  _337
REMARK  138  A    between atoms: _346  and  _348
REMARK  139  A    between atoms: _348  and  _349
REMARK  140  A    between atoms: _348  and  _351
REMARK  141  A    between atoms: _351  and  _352
REMARK  142  A    between atoms: _357  and  _358
REMARK  143  A    between atoms: _360  and  _362
REMARK  144  A    between atoms: _362  and  _363
REMARK  145  A    between atoms: _362  and  _365
REMARK  146  A    between atoms: _365  and  _366
REMARK  147  A    between atoms: _366  and  _367
REMARK  148  A    between atoms: _372  and  _374
REMARK  149  A    between atoms: _374  and  _375
REMARK  150  A    between atoms: _374  and  _377
REMARK  151  A    between atoms: _377  and  _378
REMARK  152  A    between atoms: _384  and  _386
REMARK  153  A    between atoms: _386  and  _387
REMARK  154  A    between atoms: _386  and  _389
REMARK  155  A    between atoms: _389  and  _390
REMARK  156  A    between atoms: _390  and  _391
REMARK  157  A    between atoms: _391  and  _392
REMARK  158  A    between atoms: _392  and  _393
REMARK  159  A    between atoms: _397  and  _399
REMARK  160  A    between atoms: _399  and  _400
REMARK  161  A    between atoms: _402  and  _404
REMARK  162  A    between atoms: _404  and  _405
REMARK  163  A    between atoms: _404  and  _407
REMARK  164  A    between atoms: _407  and  _408
REMARK  165  A    between atoms: _414  and  _415
REMARK  166  A    between atoms: _420  and  _422
REMARK  167  A    between atoms: _422  and  _423
REMARK  168  A    between atoms: _422  and  _425
REMARK  169  A    between atoms: _425  and  _426
REMARK  170  A    between atoms: _426  and  _427
REMARK  171  A    between atoms: _427  and  _428
REMARK  172  A    between atoms: _437  and  _439
REMARK  173  A    between atoms: _439  and  _440
REMARK  174  A    between atoms: _442  and  _444
REMARK  175  A    between atoms: _444  and  _445
REMARK  176  A    between atoms: _444  and  _447
REMARK  177  A    between atoms: _447  and  _448
REMARK  178  A    between atoms: _453  and  _455
REMARK  179  A    between atoms: _455  and  _456
REMARK  180  A    between atoms: _455  and  _458
REMARK  181  A    between atoms: _458  and  _459
REMARK  182  A    between atoms: _463  and  _464
REMARK  183  A    between atoms: _469  and  _471
REMARK  184  A    between atoms: _471  and  _472
REMARK  185  A    between atoms: _475  and  _477
REMARK  186  A    between atoms: _477  and  _478
REMARK  187  A    between atoms: _477  and  _480
REMARK  188  A    between atoms: _480  and  _481
REMARK  189  A    between atoms: _486  and  _488
REMARK  190  A    between atoms: _488  and  _489
REMARK  191  A    between atoms: _488  and  _491
REMARK  192  A    between atoms: _491  and  _492
REMARK  193  A    between atoms: _495  and  _497
REMARK  194  A    between atoms: _497  and  _498
REMARK  195  A    between atoms: _497  and  _500
REMARK  196  A    between atoms: _500  and  _501
REMARK  197  A    between atoms: _503  and  _505
REMARK  198  A    between atoms: _505  and  _506
REMARK  199  A    between atoms: _505  and  _508
REMARK  200  A    between atoms: _508  and  _509
REMARK  201  A    between atoms: _515  and  _517
REMARK  202  A    between atoms: _517  and  _518
REMARK  203  A    between atoms: _517  and  _520
REMARK  204  A    between atoms: _520  and  _521
REMARK  205  A    between atoms: _521  and  _522
REMARK  206  A    between atoms: _525  and  _527
REMARK  207  A    between atoms: _527  and  _528
REMARK  208  A    between atoms: _527  and  _530
REMARK  209  A    between atoms: _533  and  _535
REMARK  210  A    between atoms: _535  and  _536
REMARK  211  A    between atoms: _535  and  _538
REMARK  212  A    between atoms: _538  and  _539
REMARK  213  A    between atoms: _542  and  _544
REMARK  214  A    between atoms: _544  and  _545
REMARK  215  A    between atoms: _544  and  _547
REMARK  216  A    between atoms: _550  and  _552
REMARK  217  A    between atoms: _552  and  _553
REMARK  218  A    between atoms: _556  and  _558
REMARK  219  A    between atoms: _558  and  _559
REMARK  220  A    between atoms: _558  and  _561
REMARK  221  A    between atoms: _561  and  _562
REMARK  222  A    between atoms: _564  and  _566
REMARK  223  A    between atoms: _566  and  _567
REMARK  224  A    between atoms: _566  and  _569
REMARK  225  A    between atoms: _569  and  _570
REMARK  226  A    between atoms: _572  and  _574
REMARK  227  A    between atoms: _574  and  _575
REMARK  228  A    between atoms: _574  and  _577
REMARK  229  A    between atoms: _577  and  _578
REMARK  230  A    between atoms: _581  and  _583
REMARK  231  A    between atoms: _583  and  _584
REMARK  232  A    between atoms: _583  and  _586
REMARK  233  A    between atoms: _586  and  _587
REMARK  234  A    between atoms: _592  and  _593
REMARK  235  A    between atoms: _595  and  _597
REMARK  236  A    between atoms: _597  and  _598
REMARK  237  A    between atoms: _597  and  _600
REMARK  238  A    between atoms: _600  and  _601
REMARK  239  A    between atoms: _607  and  _609
REMARK  240  A    between atoms: _609  and  _610
REMARK  241  A    between atoms: _609  and  _612
REMARK  242  A    between atoms: _612  and  _613
REMARK  243  A    between atoms: _615  and  _617
REMARK  244  A    between atoms: _617  and  _618
REMARK  245  A    between atoms: _617  and  _620
REMARK  246  A    between atoms: _620  and  _621
REMARK  247  A    between atoms: _624  and  _626
REMARK  248  A    between atoms: _626  and  _627
REMARK  249  A    between atoms: _626  and  _629
REMARK  250  A    between atoms: _629  and  _630
REMARK  251  A    between atoms: _635  and  _636
REMARK                            x       y       z     vdW  Elec       q    Type
REMARK                         _______ _______ _______ _____ _____    ______ ____
ROOT
ATOM      1  O   HOH     1       4.078   5.167   7.577  0.00  0.00    +0.000 OA
ENDROOT
TORSDOF 0
REMARK  Name = ../refined-set-2016/2ihj/2ihj_pocket.pdb
REMARK  251 active torsions:
REMARK  status: ('A' for Active; 'I' for Inactive)
REMARK    1  A    between atoms: _1  and  _3
REMARK    2  A    between atoms: _3  and  _4
REMARK    3  A    between atoms: _3  and  _6
REMARK    4  A    between atoms: _6  and  _7
REMARK    5  A    between atoms: _11  and  _12
REMARK    6  A    between atoms: _17  and  _19
REMARK    7  A    between atoms: _19  and  _20
REMARK    8  A    between atoms: _23  and  _25
REMARK    9  A    between atoms: _25  and  _26
REMARK   10  A    between atoms: _25  and  _28
REMARK   11  A    between atoms: _28  and  _29
REMARK   12  A    between atoms: _31  and  _33
REMARK   13  A    between atoms: _33  and  _34
REMARK   14  A    between atoms: _33  and  _36
REMARK   15  A    between atoms: _36  and  _37
REMARK   16  A    between atoms: _41  and  _42
REMARK   17  A    between atoms: _47  and  _49
REMARK   18  A    between atoms: _49  and  _50
REMARK   19  A    between atoms: _49  and  _52
REMARK   20  A    between atoms: _52  and  _53
REMARK   21  A    between atoms: _56  and  _58
REMARK   22  A    between atoms: _58  and  _59
REMARK   23  A    between atoms: _58  and  _61
REMARK   24  A    between atoms: _61  and  _62
REMARK   25  A    between atoms: _62  and  _63
REMARK   26  A    between atoms: _63  and  _64
REMARK   27  A    between atoms: _73  and  _75
REMARK   28  A    between atoms: _75  and  _76
REMARK   29  A    between atoms: _75  and  _78
REMARK   30  A    between atoms: _78  and  _79
REMARK   31  A    between atoms: _85  and  _87
REMARK   32  A    between atoms: _87  and  _88
REMARK   33  A    between atoms: _87  and  _90
REMARK   34  A    between atoms: _90  and  _91
REMARK   35  A    between atoms: _96  and  _98
REMARK   36  A    between atoms: _98  and  _99
REMARK   37  A    between atoms: _102  and  _104
REMARK   38  A    between atoms: _104  and  _105
REMARK   39  A    between atoms: _104  and  _107
REMARK   40  A    between atoms: _107  and  _108
REMARK   41  A    between atoms: _113  and  _115
REMARK   42  A    between atoms: _115  and  _116
REMARK   43  A    between atoms: _115  and  _118
REMARK   44  A    between atoms: _118  and  _119
REMARK   45  A    between atoms: _122  and  _124
REMARK   46  A    between atoms: _124  and  _125
REMARK   47  A    between atoms: _124  and  _127
REMARK   48  A    between atoms: _127  and  _128
REMARK   49  A    between atoms: _131  and  _133
REMARK   50  A    between atoms: _133  and  _134
REMARK   51  A    between atoms: _136  and  _138
REMARK   52  A    between atoms: _138  and  _139
REMARK   53  A    between atoms: _138  and  _141
REMARK   54  A    between atoms: _141  and  _142
REMARK   55  A    between atoms: _144  and  _146
REMARK   56  A    between atoms: _146  and  _147
REMARK   57  A    between atoms: _146  and  _149
REMARK   58  A    between atoms: _149  and  _150
REMARK   59  A    between atoms: _150  and  _151
REMARK   60  A    between atoms: _153  and  _155
REMARK   61  A    between atoms: _155  and  _156
REMARK   62  A    between atoms: _155  and  _158
REMARK   63  A    between atoms: _158  and  _159
REMARK   64  A    between atoms: _159  and  _160
REMARK   65  A    between atoms: _163  and  _165
REMARK   66  A    between atoms: _165  and  _166
REMARK   67  A    between atoms: _165  and  _168
REMARK   68  A    between atoms: _168  and  _169
REMARK   69  A    between atoms: _174  and  _175
REMARK   70  A    between atoms: _177  and  _179
REMARK   71  A    between atoms: _179  and  _180
REMARK   72  A    between atoms: _179  and  _182
REMARK   73  A    between atoms: _185  and  _187
REMARK   74  A    between atoms: _187  and  _188
REMARK   75  A    between atoms: _187  and  _190
REMARK   76  A    between atoms: _190  and  _191
REMARK   77  A    between atoms: _194  and  _196
REMARK   78  A    between atoms: _196  and  _197
REMARK   79  A    between atoms: _196  and  _199
REMARK   80  A    between atoms: _199  and  _200
REMARK   81  A    between atoms: _200  and  _201
REMARK   82  A    between atoms: _201  and  _202
REMARK   83  A    between atoms: _202  and  _203
REMARK   84  A    between atoms: _207  and  _209
REMARK   85  A    between atoms: _209  and  _210
REMARK   86  A    between atoms: _209  and  _212
REMARK   87  A    between atoms: _212  and  _213
REMARK   88  A    between atoms: _216  and  _218
REMARK   89  A    between atoms: _218  and  _219
REMARK   90  A    between atoms: _218  and  _221
REMARK   91  A    between atoms: _221  and  _222
REMARK   92  A    between atoms: _222  and  _223
REMARK   93  A    between atoms: _225  and  _227
REMARK   94  A    between atoms: _227  and  _228
REMARK   95  A    between atoms: _227  and  _230
REMARK   96  A    between atoms: _230  and  _231
REMARK   97  A    between atoms: _241  and  _243
REMARK   98  A    between atoms: _243  and  _244
REMARK   99  A    between atoms: _243  and  _246
REMARK  100  A    between atoms: _246  and  _247
REMARK  101  A    between atoms: _250  and  _252
REMARK  102  A    between atoms: _252  and  _253
REMARK  103  A    between atoms: _252  and  _255
REMARK  104  A    between atoms: _255  and  _256
REMARK  105  A    between atoms: _262  and  _264
REMARK  106  A    between atoms: _264  and  _265
REMARK  107  A    between atoms: _264  and  _267
REMARK  108  A    between atoms: _267  and  _268
REMARK  109  A    between atoms: _271  and  _273
REMARK  110  A    between atoms: _273  and  _274
REMARK  111  A    between atoms: _276  and  _278
REMARK  112  A    between atoms: _278  and  _279
REMARK  113  A    between atoms: _278  and  _281
REMARK  114  A    between atoms: _281  and  _282
REMARK  115  A    between atoms: _285  and  _287
REMARK  116  A    between atoms: _287  and  _288
REMARK  117  A    between atoms: _287  and  _290
REMARK  118  A    between atoms: _290  and  _291
REMARK  119  A    between atoms: _294  and  _296
REMARK  120  A    between atoms: _296  and  _297
REMARK  121  A    between atoms: _296  and  _299
REMARK  122  A    between atoms: _299  and  _300
REMARK  123  A    between atoms: _303  and  _305
REMARK  124  A    between atoms: _305  and  _306
REMARK  125  A    between atoms: _305  and  _308
REMARK  126  A    between atoms: _308  and  _309
REMARK  127  A    between atoms: _319  and  _321
REMARK  128  A    between atoms: _321  and  _322
REMARK  129  A    between atoms: _321  and  _324
REMARK  130  A    between atoms: _324  and  _325
REMARK  131  A    between atoms: _325  and  _326
REMARK  132  A    between atoms: _329  and  _331
REMARK  133  A    between atoms: _331  and  _332
REMARK  134  A    between atoms: _331  and  _334
REMARK  135  A    between atoms: _334  and  _335
REMARK  136  A    between atoms: _335  and  _336
REMARK  137  A    between atoms: _336  and  _337
REMARK  138  A    between atoms: _346  and  _348
REMARK  139  A    between atoms: _348  and  _349
REMARK  140  A    between atoms: _348  and  _351
REMARK  141  A    between atoms: _351  and  _352
REMARK  142  A    between atoms: _357  and  _358
REMARK  143  A    between atoms: _360  and  _362
REMARK  144  A    between atoms: _362  and  _363
REMARK  145  A    between atoms: _362  and  _365
REMARK  146  A    between atoms: _365  and  _366
REMARK  147  A    between atoms: _366  and  _367
REMARK  148  A    between atoms: _372  and  _374
REMARK  149  A    between atoms: _374  and  _375
REMARK  150  A    between atoms: _374  and  _377
REMARK  151  A    between atoms: _377  and  _378
REMARK  152  A    between atoms: _384  and  _386
REMARK  153  A    between atoms: _386  and  _387
REMARK  154  A    between atoms: _386  and  _389
REMARK  155  A    between atoms: _389  and  _390
REMARK  156  A    between atoms: _390  and  _391
REMARK  157  A    between atoms: _391  and  _392
REMARK  158  A    between atoms: _392  and  _393
REMARK  159  A    between atoms: _397  and  _399
REMARK  160  A    between atoms: _399  and  _400
REMARK  161  A    between atoms: _402  and  _404
REMARK  162  A    between atoms: _404  and  _405
REMARK  163  A    between atoms: _404  and  _407
REMARK  164  A    between atoms: _407  and  _408
REMARK  165  A    between atoms: _414  and  _415
REMARK  166  A    between atoms: _420  and  _422
REMARK  167  A    between atoms: _422  and  _423
REMARK  168  A    between atoms: _422  and  _425
REMARK  169  A    between atoms: _425  and  _426
REMARK  170  A    between atoms: _426  and  _427
REMARK  171  A    between atoms: _427  and  _428
REMARK  172  A    between atoms: _437  and  _439
REMARK  173  A    between atoms: _439  and  _440
REMARK  174  A    between atoms: _442  and  _444
REMARK  175  A    between atoms: _444  and  _445
REMARK  176  A    between atoms: _444  and  _447
REMARK  177  A    between atoms: _447  and  _448
REMARK  178  A    between atoms: _453  and  _455
REMARK  179  A    between atoms: _455  and  _456
REMARK  180  A    between atoms: _455  and  _458
REMARK  181  A    between atoms: _458  and  _459
REMARK  182  A    between atoms: _463  and  _464
REMARK  183  A    between atoms: _469  and  _471
REMARK  184  A    between atoms: _471  and  _472
REMARK  185  A    between atoms: _475  and  _477
REMARK  186  A    between atoms: _477  and  _478
REMARK  187  A    between atoms: _477  and  _480
REMARK  188  A    between atoms: _480  and  _481
REMARK  189  A    between atoms: _486  and  _488
REMARK  190  A    between atoms: _488  and  _489
REMARK  191  A    between atoms: _488  and  _491
REMARK  192  A    between atoms: _491  and  _492
REMARK  193  A    between atoms: _495  and  _497
REMARK  194  A    between atoms: _497  and  _498
REMARK  195  A    between atoms: _497  and  _500
REMARK  196  A    between atoms: _500  and  _501
REMARK  197  A    between atoms: _503  and  _505
REMARK  198  A    between atoms: _505  and  _506
REMARK  199  A    between atoms: _505  and  _508
REMARK  200  A    between atoms: _508  and  _509
REMARK  201  A    between atoms: _515  and  _517
REMARK  202  A    between atoms: _517  and  _518
REMARK  203  A    between atoms: _517  and  _520
REMARK  204  A    between atoms: _520  and  _521
REMARK  205  A    between atoms: _521  and  _522
REMARK  206  A    between atoms: _525  and  _527
REMARK  207  A    between atoms: _527  and  _528
REMARK  208  A    between atoms: _527  and  _530
REMARK  209  A    between atoms: _533  and  _535
REMARK  210  A    between atoms: _535  and  _536
REMARK  211  A    between atoms: _535  and  _538
REMARK  212  A    between atoms: _538  and  _539
REMARK  213  A    between atoms: _542  and  _544
REMARK  214  A    between atoms: _544  and  _545
REMARK  215  A    between atoms: _544  and  _547
REMARK  216  A    between atoms: _550  and  _552
REMARK  217  A    between atoms: _552  and  _553
REMARK  218  A    between atoms: _556  and  _558
REMARK  219  A    between atoms: _558  and  _559
REMARK  220  A    between atoms: _558  and  _561
REMARK  221  A    between atoms: _561  and  _562
REMARK  222  A    between atoms: _564  and  _566
REMARK  223  A    between atoms: _566  and  _567
REMARK  224  A    between atoms: _566  and  _569
REMARK  225  A    between atoms: _569  and  _570
REMARK  226  A    between atoms: _572  and  _574
REMARK  227  A    between atoms: _574  and  _575
REMARK  228  A    between atoms: _574  and  _577
REMARK  229  A    between atoms: _577  and  _578
REMARK  230  A    between atoms: _581  and  _583
REMARK  231  A    between atoms: _583  and  _584
REMARK  232  A    between atoms: _583  and  _586
REMARK  233  A    between atoms: _586  and  _587
REMARK  234  A    between atoms: _592  and  _593
REMARK  235  A    between atoms: _595  and  _597
REMARK  236  A    between atoms: _597  and  _598
REMARK  237  A    between atoms: _597  and  _600
REMARK  238  A    between atoms: _600  and  _601
REMARK  239  A    between atoms: _607  and  _609
REMARK  240  A    between atoms: _609  and  _610
REMARK  241  A    between atoms: _609  and  _612
REMARK  242  A    between atoms: _612  and  _613
REMARK  243  A    between atoms: _615  and  _617
REMARK  244  A    between atoms: _617  and  _618
REMARK  245  A    between atoms: _617  and  _620
REMARK  246  A    between atoms: _620  and  _621
REMARK  247  A    between atoms: _624  and  _626
REMARK  248  A    between atoms: _626  and  _627
REMARK  249  A    between atoms: _626  and  _629
REMARK  250  A    between atoms: _629  and  _630
REMARK  251  A    between atoms: _635  and  _636
REMARK                            x       y       z     vdW  Elec       q    Type
REMARK                         _______ _______ _______ _____ _____    ______ ____
ROOT
ATOM      1  O   HOH     1       7.162   4.155   6.485  0.00  0.00    +0.000 OA
ENDROOT
TORSDOF 0
REMARK  Name = ../refined-set-2016/2ihj/2ihj_pocket.pdb
REMARK  251 active torsions:
REMARK  status: ('A' for Active; 'I' for Inactive)
REMARK    1  A    between atoms: _1  and  _3
REMARK    2  A    between atoms: _3  and  _4
REMARK    3  A    between atoms: _3  and  _6
REMARK    4  A    between atoms: _6  and  _7
REMARK    5  A    between atoms: _11  and  _12
REMARK    6  A    between atoms: _17  and  _19
REMARK    7  A    between atoms: _19  and  _20
REMARK    8  A    between atoms: _23  and  _25
REMARK    9  A    between atoms: _25  and  _26
REMARK   10  A    between atoms: _25  and  _28
REMARK   11  A    between atoms: _28  and  _29
REMARK   12  A    between atoms: _31  and  _33
REMARK   13  A    between atoms: _33  and  _34
REMARK   14  A    between atoms: _33  and  _36
REMARK   15  A    between atoms: _36  and  _37
REMARK   16  A    between atoms: _41  and  _42
REMARK   17  A    between atoms: _47  and  _49
REMARK   18  A    between atoms: _49  and  _50
REMARK   19  A    between atoms: _49  and  _52
REMARK   20  A    between atoms: _52  and  _53
REMARK   21  A    between atoms: _56  and  _58
REMARK   22  A    between atoms: _58  and  _59
REMARK   23  A    between atoms: _58  and  _61
REMARK   24  A    between atoms: _61  and  _62
REMARK   25  A    between atoms: _62  and  _63
REMARK   26  A    between atoms: _63  and  _64
REMARK   27  A    between atoms: _73  and  _75
REMARK   28  A    between atoms: _75  and  _76
REMARK   29  A    between atoms: _75  and  _78
REMARK   30  A    between atoms: _78  and  _79
REMARK   31  A    between atoms: _85  and  _87
REMARK   32  A    between atoms: _87  and  _88
REMARK   33  A    between atoms: _87  and  _90
REMARK   34  A    between atoms: _90  and  _91
REMARK   35  A    between atoms: _96  and  _98
REMARK   36  A    between atoms: _98  and  _99
REMARK   37  A    between atoms: _102  and  _104
REMARK   38  A    between atoms: _104  and  _105
REMARK   39  A    between atoms: _104  and  _107
REMARK   40  A    between atoms: _107  and  _108
REMARK   41  A    between atoms: _113  and  _115
REMARK   42  A    between atoms: _115  and  _116
REMARK   43  A    between atoms: _115  and  _118
REMARK   44  A    between atoms: _118  and  _119
REMARK   45  A    between atoms: _122  and  _124
REMARK   46  A    between atoms: _124  and  _125
REMARK   47  A    between atoms: _124  and  _127
REMARK   48  A    between atoms: _127  and  _128
REMARK   49  A    between atoms: _131  and  _133
REMARK   50  A    between atoms: _133  and  _134
REMARK   51  A    between atoms: _136  and  _138
REMARK   52  A    between atoms: _138  and  _139
REMARK   53  A    between atoms: _138  and  _141
REMARK   54  A    between atoms: _141  and  _142
REMARK   55  A    between atoms: _144  and  _146
REMARK   56  A    between atoms: _146  and  _147
REMARK   57  A    between atoms: _146  and  _149
REMARK   58  A    between atoms: _149  and  _150
REMARK   59  A    between atoms: _150  and  _151
REMARK   60  A    between atoms: _153  and  _155
REMARK   61  A    between atoms: _155  and  _156
REMARK   62  A    between atoms: _155  and  _158
REMARK   63  A    between atoms: _158  and  _159
REMARK   64  A    between atoms: _159  and  _160
REMARK   65  A    between atoms: _163  and  _165
REMARK   66  A    between atoms: _165  and  _166
REMARK   67  A    between atoms: _165  and  _168
REMARK   68  A    between atoms: _168  and  _169
REMARK   69  A    between atoms: _174  and  _175
REMARK   70  A    between atoms: _177  and  _179
REMARK   71  A    between atoms: _179  and  _180
REMARK   72  A    between atoms: _179  and  _182
REMARK   73  A    between atoms: _185  and  _187
REMARK   74  A    between atoms: _187  and  _188
REMARK   75  A    between atoms: _187  and  _190
REMARK   76  A    between atoms: _190  and  _191
REMARK   77  A    between atoms: _194  and  _196
REMARK   78  A    between atoms: _196  and  _197
REMARK   79  A    between atoms: _196  and  _199
REMARK   80  A    between atoms: _199  and  _200
REMARK   81  A    between atoms: _200  and  _201
REMARK   82  A    between atoms: _201  and  _202
REMARK   83  A    between atoms: _202  and  _203
REMARK   84  A    between atoms: _207  and  _209
REMARK   85  A    between atoms: _209  and  _210
REMARK   86  A    between atoms: _209  and  _212
REMARK   87  A    between atoms: _212  and  _213
REMARK   88  A    between atoms: _216  and  _218
REMARK   89  A    between atoms: _218  and  _219
REMARK   90  A    between atoms: _218  and  _221
REMARK   91  A    between atoms: _221  and  _222
REMARK   92  A    between atoms: _222  and  _223
REMARK   93  A    between atoms: _225  and  _227
REMARK   94  A    between atoms: _227  and  _228
REMARK   95  A    between atoms: _227  and  _230
REMARK   96  A    between atoms: _230  and  _231
REMARK   97  A    between atoms: _241  and  _243
REMARK   98  A    between atoms: _243  and  _244
REMARK   99  A    between atoms: _243  and  _246
REMARK  100  A    between atoms: _246  and  _247
REMARK  101  A    between atoms: _250  and  _252
REMARK  102  A    between atoms: _252  and  _253
REMARK  103  A    between atoms: _252  and  _255
REMARK  104  A    between atoms: _255  and  _256
REMARK  105  A    between atoms: _262  and  _264
REMARK  106  A    between atoms: _264  and  _265
REMARK  107  A    between atoms: _264  and  _267
REMARK  108  A    between atoms: _267  and  _268
REMARK  109  A    between atoms: _271  and  _273
REMARK  110  A    between atoms: _273  and  _274
REMARK  111  A    between atoms: _276  and  _278
REMARK  112  A    between atoms: _278  and  _279
REMARK  113  A    between atoms: _278  and  _281
REMARK  114  A    between atoms: _281  and  _282
REMARK  115  A    between atoms: _285  and  _287
REMARK  116  A    between atoms: _287  and  _288
REMARK  117  A    between atoms: _287  and  _290
REMARK  118  A    between atoms: _290  and  _291
REMARK  119  A    between atoms: _294  and  _296
REMARK  120  A    between atoms: _296  and  _297
REMARK  121  A    between atoms: _296  and  _299
REMARK  122  A    between atoms: _299  and  _300
REMARK  123  A    between atoms: _303  and  _305
REMARK  124  A    between atoms: _305  and  _306
REMARK  125  A    between atoms: _305  and  _308
REMARK  126  A    between atoms: _308  and  _309
REMARK  127  A    between atoms: _319  and  _321
REMARK  128  A    between atoms: _321  and  _322
REMARK  129  A    between atoms: _321  and  _324
REMARK  130  A    between atoms: _324  and  _325
REMARK  131  A    between atoms: _325  and  _326
REMARK  132  A    between atoms: _329  and  _331
REMARK  133  A    between atoms: _331  and  _332
REMARK  134  A    between atoms: _331  and  _334
REMARK  135  A    between atoms: _334  and  _335
REMARK  136  A    between atoms: _335  and  _336
REMARK  137  A    between atoms: _336  and  _337
REMARK  138  A    between atoms: _346  and  _348
REMARK  139  A    between atoms: _348  and  _349
REMARK  140  A    between atoms: _348  and  _351
REMARK  141  A    between atoms: _351  and  _352
REMARK  142  A    between atoms: _357  and  _358
REMARK  143  A    between atoms: _360  and  _362
REMARK  144  A    between atoms: _362  and  _363
REMARK  145  A    between atoms: _362  and  _365
REMARK  146  A    between atoms: _365  and  _366
REMARK  147  A    between atoms: _366  and  _367
REMARK  148  A    between atoms: _372  and  _374
REMARK  149  A    between atoms: _374  and  _375
REMARK  150  A    between atoms: _374  and  _377
REMARK  151  A    between atoms: _377  and  _378
REMARK  152  A    between atoms: _384  and  _386
REMARK  153  A    between atoms: _386  and  _387
REMARK  154  A    between atoms: _386  and  _389
REMARK  155  A    between atoms: _389  and  _390
REMARK  156  A    between atoms: _390  and  _391
REMARK  157  A    between atoms: _391  and  _392
REMARK  158  A    between atoms: _392  and  _393
REMARK  159  A    between atoms: _397  and  _399
REMARK  160  A    between atoms: _399  and  _400
REMARK  161  A    between atoms: _402  and  _404
REMARK  162  A    between atoms: _404  and  _405
REMARK  163  A    between atoms: _404  and  _407
REMARK  164  A    between atoms: _407  and  _408
REMARK  165  A    between atoms: _414  and  _415
REMARK  166  A    between atoms: _420  and  _422
REMARK  167  A    between atoms: _422  and  _423
REMARK  168  A    between atoms: _422  and  _425
REMARK  169  A    between atoms: _425  and  _426
REMARK  170  A    between atoms: _426  and  _427
REMARK  171  A    between atoms: _427  and  _428
REMARK  172  A    between atoms: _437  and  _439
REMARK  173  A    between atoms: _439  and  _440
REMARK  174  A    between atoms: _442  and  _444
REMARK  175  A    between atoms: _444  and  _445
REMARK  176  A    between atoms: _444  and  _447
REMARK  177  A    between atoms: _447  and  _448
REMARK  178  A    between atoms: _453  and  _455
REMARK  179  A    between atoms: _455  and  _456
REMARK  180  A    between atoms: _455  and  _458
REMARK  181  A    between atoms: _458  and  _459
REMARK  182  A    between atoms: _463  and  _464
REMARK  183  A    between atoms: _469  and  _471
REMARK  184  A    between atoms: _471  and  _472
REMARK  185  A    between atoms: _475  and  _477
REMARK  186  A    between atoms: _477  and  _478
REMARK  187  A    between atoms: _477  and  _480
REMARK  188  A    between atoms: _480  and  _481
REMARK  189  A    between atoms: _486  and  _488
REMARK  190  A    between atoms: _488  and  _489
REMARK  191  A    between atoms: _488  and  _491
REMARK  192  A    between atoms: _491  and  _492
REMARK  193  A    between atoms: _495  and  _497
REMARK  194  A    between atoms: _497  and  _498
REMARK  195  A    between atoms: _497  and  _500
REMARK  196  A    between atoms: _500  and  _501
REMARK  197  A    between atoms: _503  and  _505
REMARK  198  A    between atoms: _505  and  _506
REMARK  199  A    between atoms: _505  and  _508
REMARK  200  A    between atoms: _508  and  _509
REMARK  201  A    between atoms: _515  and  _517
REMARK  202  A    between atoms: _517  and  _518
REMARK  203  A    between atoms: _517  and  _520
REMARK  204  A    between atoms: _520  and  _521
REMARK  205  A    between atoms: _521  and  _522
REMARK  206  A    between atoms: _525  and  _527
REMARK  207  A    between atoms: _527  and  _528
REMARK  208  A    between atoms: _527  and  _530
REMARK  209  A    between atoms: _533  and  _535
REMARK  210  A    between atoms: _535  and  _536
REMARK  211  A    between atoms: _535  and  _538
REMARK  212  A    between atoms: _538  and  _539
REMARK  213  A    between atoms: _542  and  _544
REMARK  214  A    between atoms: _544  and  _545
REMARK  215  A    between atoms: _544  and  _547
REMARK  216  A    between atoms: _550  and  _552
REMARK  217  A    between atoms: _552  and  _553
REMARK  218  A    between atoms: _556  and  _558
REMARK  219  A    between atoms: _558  and  _559
REMARK  220  A    between atoms: _558  and  _561
REMARK  221  A    between atoms: _561  and  _562
REMARK  222  A    between atoms: _564  and  _566
REMARK  223  A    between atoms: _566  and  _567
REMARK  224  A    between atoms: _566  and  _569
REMARK  225  A    between atoms: _569  and  _570
REMARK  226  A    between atoms: _572  and  _574
REMARK  227  A    between atoms: _574  and  _575
REMARK  228  A    between atoms: _574  and  _577
REMARK  229  A    between atoms: _577  and  _578
REMARK  230  A    between atoms: _581  and  _583
REMARK  231  A    between atoms: _583  and  _584
REMARK  232  A    between atoms: _583  and  _586
REMARK  233  A    between atoms: _586  and  _587
REMARK  234  A    between atoms: _592  and  _593
REMARK  235  A    between atoms: _595  and  _597
REMARK  236  A    between atoms: _597  and  _598
REMARK  237  A    between atoms: _597  and  _600
REMARK  238  A    between atoms: _600  and  _601
REMARK  239  A    between atoms: _607  and  _609
REMARK  240  A    between atoms: _609  and  _610
REMARK  241  A    between atoms: _609  and  _612
REMARK  242  A    between atoms: _612  and  _613
REMARK  243  A    between atoms: _615  and  _617
REMARK  244  A    between atoms: _617  and  _618
REMARK  245  A    between atoms: _617  and  _620
REMARK  246  A    between atoms: _620  and  _621
REMARK  247  A    between atoms: _624  and  _626
REMARK  248  A    between atoms: _626  and  _627
REMARK  249  A    between atoms: _626  and  _629
REMARK  250  A    between atoms: _629  and  _630
REMARK  251  A    between atoms: _635  and  _636
REMARK                            x       y       z     vdW  Elec       q    Type
REMARK                         _______ _______ _______ _____ _____    ______ ____
ROOT
ATOM      1  O   HOH     1      10.605  -4.707  -9.535  0.00  0.00    +0.000 OA
ENDROOT
TORSDOF 0
REMARK  Name = ../refined-set-2016/2ihj/2ihj_pocket.pdb
REMARK  251 active torsions:
REMARK  status: ('A' for Active; 'I' for Inactive)
REMARK    1  A    between atoms: _1  and  _3
REMARK    2  A    between atoms: _3  and  _4
REMARK    3  A    between atoms: _3  and  _6
REMARK    4  A    between atoms: _6  and  _7
REMARK    5  A    between atoms: _11  and  _12
REMARK    6  A    between atoms: _17  and  _19
REMARK    7  A    between atoms: _19  and  _20
REMARK    8  A    between atoms: _23  and  _25
REMARK    9  A    between atoms: _25  and  _26
REMARK   10  A    between atoms: _25  and  _28
REMARK   11  A    between atoms: _28  and  _29
REMARK   12  A    between atoms: _31  and  _33
REMARK   13  A    between atoms: _33  and  _34
REMARK   14  A    between atoms: _33  and  _36
REMARK   15  A    between atoms: _36  and  _37
REMARK   16  A    between atoms: _41  and  _42
REMARK   17  A    between atoms: _47  and  _49
REMARK   18  A    between atoms: _49  and  _50
REMARK   19  A    between atoms: _49  and  _52
REMARK   20  A    between atoms: _52  and  _53
REMARK   21  A    between atoms: _56  and  _58
REMARK   22  A    between atoms: _58  and  _59
REMARK   23  A    between atoms: _58  and  _61
REMARK   24  A    between atoms: _61  and  _62
REMARK   25  A    between atoms: _62  and  _63
REMARK   26  A    between atoms: _63  and  _64
REMARK   27  A    between atoms: _73  and  _75
REMARK   28  A    between atoms: _75  and  _76
REMARK   29  A    between atoms: _75  and  _78
REMARK   30  A    between atoms: _78  and  _79
REMARK   31  A    between atoms: _85  and  _87
REMARK   32  A    between atoms: _87  and  _88
REMARK   33  A    between atoms: _87  and  _90
REMARK   34  A    between atoms: _90  and  _91
REMARK   35  A    between atoms: _96  and  _98
REMARK   36  A    between atoms: _98  and  _99
REMARK   37  A    between atoms: _102  and  _104
REMARK   38  A    between atoms: _104  and  _105
REMARK   39  A    between atoms: _104  and  _107
REMARK   40  A    between atoms: _107  and  _108
REMARK   41  A    between atoms: _113  and  _115
REMARK   42  A    between atoms: _115  and  _116
REMARK   43  A    between atoms: _115  and  _118
REMARK   44  A    between atoms: _118  and  _119
REMARK   45  A    between atoms: _122  and  _124
REMARK   46  A    between atoms: _124  and  _125
REMARK   47  A    between atoms: _124  and  _127
REMARK   48  A    between atoms: _127  and  _128
REMARK   49  A    between atoms: _131  and  _133
REMARK   50  A    between atoms: _133  and  _134
REMARK   51  A    between atoms: _136  and  _138
REMARK   52  A    between atoms: _138  and  _139
REMARK   53  A    between atoms: _138  and  _141
REMARK   54  A    between atoms: _141  and  _142
REMARK   55  A    between atoms: _144  and  _146
REMARK   56  A    between atoms: _146  and  _147
REMARK   57  A    between atoms: _146  and  _149
REMARK   58  A    between atoms: _149  and  _150
REMARK   59  A    between atoms: _150  and  _151
REMARK   60  A    between atoms: _153  and  _155
REMARK   61  A    between atoms: _155  and  _156
REMARK   62  A    between atoms: _155  and  _158
REMARK   63  A    between atoms: _158  and  _159
REMARK   64  A    between atoms: _159  and  _160
REMARK   65  A    between atoms: _163  and  _165
REMARK   66  A    between atoms: _165  and  _166
REMARK   67  A    between atoms: _165  and  _168
REMARK   68  A    between atoms: _168  and  _169
REMARK   69  A    between atoms: _174  and  _175
REMARK   70  A    between atoms: _177  and  _179
REMARK   71  A    between atoms: _179  and  _180
REMARK   72  A    between atoms: _179  and  _182
REMARK   73  A    between atoms: _185  and  _187
REMARK   74  A    between atoms: _187  and  _188
REMARK   75  A    between atoms: _187  and  _190
REMARK   76  A    between atoms: _190  and  _191
REMARK   77  A    between atoms: _194  and  _196
REMARK   78  A    between atoms: _196  and  _197
REMARK   79  A    between atoms: _196  and  _199
REMARK   80  A    between atoms: _199  and  _200
REMARK   81  A    between atoms: _200  and  _201
REMARK   82  A    between atoms: _201  and  _202
REMARK   83  A    between atoms: _202  and  _203
REMARK   84  A    between atoms: _207  and  _209
REMARK   85  A    between atoms: _209  and  _210
REMARK   86  A    between atoms: _209  and  _212
REMARK   87  A    between atoms: _212  and  _213
REMARK   88  A    between atoms: _216  and  _218
REMARK   89  A    between atoms: _218  and  _219
REMARK   90  A    between atoms: _218  and  _221
REMARK   91  A    between atoms: _221  and  _222
REMARK   92  A    between atoms: _222  and  _223
REMARK   93  A    between atoms: _225  and  _227
REMARK   94  A    between atoms: _227  and  _228
REMARK   95  A    between atoms: _227  and  _230
REMARK   96  A    between atoms: _230  and  _231
REMARK   97  A    between atoms: _241  and  _243
REMARK   98  A    between atoms: _243  and  _244
REMARK   99  A    between atoms: _243  and  _246
REMARK  100  A    between atoms: _246  and  _247
REMARK  101  A    between atoms: _250  and  _252
REMARK  102  A    between atoms: _252  and  _253
REMARK  103  A    between atoms: _252  and  _255
REMARK  104  A    between atoms: _255  and  _256
REMARK  105  A    between atoms: _262  and  _264
REMARK  106  A    between atoms: _264  and  _265
REMARK  107  A    between atoms: _264  and  _267
REMARK  108  A    between atoms: _267  and  _268
REMARK  109  A    between atoms: _271  and  _273
REMARK  110  A    between atoms: _273  and  _274
REMARK  111  A    between atoms: _276  and  _278
REMARK  112  A    between atoms: _278  and  _279
REMARK  113  A    between atoms: _278  and  _281
REMARK  114  A    between atoms: _281  and  _282
REMARK  115  A    between atoms: _285  and  _287
REMARK  116  A    between atoms: _287  and  _288
REMARK  117  A    between atoms: _287  and  _290
REMARK  118  A    between atoms: _290  and  _291
REMARK  119  A    between atoms: _294  and  _296
REMARK  120  A    between atoms: _296  and  _297
REMARK  121  A    between atoms: _296  and  _299
REMARK  122  A    between atoms: _299  and  _300
REMARK  123  A    between atoms: _303  and  _305
REMARK  124  A    between atoms: _305  and  _306
REMARK  125  A    between atoms: _305  and  _308
REMARK  126  A    between atoms: _308  and  _309
REMARK  127  A    between atoms: _319  and  _321
REMARK  128  A    between atoms: _321  and  _322
REMARK  129  A    between atoms: _321  and  _324
REMARK  130  A    between atoms: _324  and  _325
REMARK  131  A    between atoms: _325  and  _326
REMARK  132  A    between atoms: _329  and  _331
REMARK  133  A    between atoms: _331  and  _332
REMARK  134  A    between atoms: _331  and  _334
REMARK  135  A    between atoms: _334  and  _335
REMARK  136  A    between atoms: _335  and  _336
REMARK  137  A    between atoms: _336  and  _337
REMARK  138  A    between atoms: _346  and  _348
REMARK  139  A    between atoms: _348  and  _349
REMARK  140  A    between atoms: _348  and  _351
REMARK  141  A    between atoms: _351  and  _352
REMARK  142  A    between atoms: _357  and  _358
REMARK  143  A    between atoms: _360  and  _362
REMARK  144  A    between atoms: _362  and  _363
REMARK  145  A    between atoms: _362  and  _365
REMARK  146  A    between atoms: _365  and  _366
REMARK  147  A    between atoms: _366  and  _367
REMARK  148  A    between atoms: _372  and  _374
REMARK  149  A    between atoms: _374  and  _375
REMARK  150  A    between atoms: _374  and  _377
REMARK  151  A    between atoms: _377  and  _378
REMARK  152  A    between atoms: _384  and  _386
REMARK  153  A    between atoms: _386  and  _387
REMARK  154  A    between atoms: _386  and  _389
REMARK  155  A    between atoms: _389  and  _390
REMARK  156  A    between atoms: _390  and  _391
REMARK  157  A    between atoms: _391  and  _392
REMARK  158  A    between atoms: _392  and  _393
REMARK  159  A    between atoms: _397  and  _399
REMARK  160  A    between atoms: _399  and  _400
REMARK  161  A    between atoms: _402  and  _404
REMARK  162  A    between atoms: _404  and  _405
REMARK  163  A    between atoms: _404  and  _407
REMARK  164  A    between atoms: _407  and  _408
REMARK  165  A    between atoms: _414  and  _415
REMARK  166  A    between atoms: _420  and  _422
REMARK  167  A    between atoms: _422  and  _423
REMARK  168  A    between atoms: _422  and  _425
REMARK  169  A    between atoms: _425  and  _426
REMARK  170  A    between atoms: _426  and  _427
REMARK  171  A    between atoms: _427  and  _428
REMARK  172  A    between atoms: _437  and  _439
REMARK  173  A    between atoms: _439  and  _440
REMARK  174  A    between atoms: _442  and  _444
REMARK  175  A    between atoms: _444  and  _445
REMARK  176  A    between atoms: _444  and  _447
REMARK  177  A    between atoms: _447  and  _448
REMARK  178  A    between atoms: _453  and  _455
REMARK  179  A    between atoms: _455  and  _456
REMARK  180  A    between atoms: _455  and  _458
REMARK  181  A    between atoms: _458  and  _459
REMARK  182  A    between atoms: _463  and  _464
REMARK  183  A    between atoms: _469  and  _471
REMARK  184  A    between atoms: _471  and  _472
REMARK  185  A    between atoms: _475  and  _477
REMARK  186  A    between atoms: _477  and  _478
REMARK  187  A    between atoms: _477  and  _480
REMARK  188  A    between atoms: _480  and  _481
REMARK  189  A    between atoms: _486  and  _488
REMARK  190  A    between atoms: _488  and  _489
REMARK  191  A    between atoms: _488  and  _491
REMARK  192  A    between atoms: _491  and  _492
REMARK  193  A    between atoms: _495  and  _497
REMARK  194  A    between atoms: _497  and  _498
REMARK  195  A    between atoms: _497  and  _500
REMARK  196  A    between atoms: _500  and  _501
REMARK  197  A    between atoms: _503  and  _505
REMARK  198  A    between atoms: _505  and  _506
REMARK  199  A    between atoms: _505  and  _508
REMARK  200  A    between atoms: _508  and  _509
REMARK  201  A    between atoms: _515  and  _517
REMARK  202  A    between atoms: _517  and  _518
REMARK  203  A    between atoms: _517  and  _520
REMARK  204  A    between atoms: _520  and  _521
REMARK  205  A    between atoms: _521  and  _522
REMARK  206  A    between atoms: _525  and  _527
REMARK  207  A    between atoms: _527  and  _528
REMARK  208  A    between atoms: _527  and  _530
REMARK  209  A    between atoms: _533  and  _535
REMARK  210  A    between atoms: _535  and  _536
REMARK  211  A    between atoms: _535  and  _538
REMARK  212  A    between atoms: _538  and  _539
REMARK  213  A    between atoms: _542  and  _544
REMARK  214  A    between atoms: _544  and  _545
REMARK  215  A    between atoms: _544  and  _547
REMARK  216  A    between atoms: _550  and  _552
REMARK  217  A    between atoms: _552  and  _553
REMARK  218  A    between atoms: _556  and  _558
REMARK  219  A    between atoms: _558  and  _559
REMARK  220  A    between atoms: _558  and  _561
REMARK  221  A    between atoms: _561  and  _562
REMARK  222  A    between atoms: _564  and  _566
REMARK  223  A    between atoms: _566  and  _567
REMARK  224  A    between atoms: _566  and  _569
REMARK  225  A    between atoms: _569  and  _570
REMARK  226  A    between atoms: _572  and  _574
REMARK  227  A    between atoms: _574  and  _575
REMARK  228  A    between atoms: _574  and  _577
REMARK  229  A    between atoms: _577  and  _578
REMARK  230  A    between atoms: _581  and  _583
REMARK  231  A    between atoms: _583  and  _584
REMARK  232  A    between atoms: _583  and  _586
REMARK  233  A    between atoms: _586  and  _587
REMARK  234  A    between atoms: _592  and  _593
REMARK  235  A    between atoms: _595  and  _597
REMARK  236  A    between atoms: _597  and  _598
REMARK  237  A    between atoms: _597  and  _600
REMARK  238  A    between atoms: _600  and  _601
REMARK  239  A    between atoms: _607  and  _609
REMARK  240  A    between atoms: _609  and  _610
REMARK  241  A    between atoms: _609  and  _612
REMARK  242  A    between atoms: _612  and  _613
REMARK  243  A    between atoms: _615  and  _617
REMARK  244  A    between atoms: _617  and  _618
REMARK  245  A    between atoms: _617  and  _620
REMARK  246  A    between atoms: _620  and  _621
REMARK  247  A    between atoms: _624  and  _626
REMARK  248  A    between atoms: _626  and  _627
REMARK  249  A    between atoms: _626  and  _629
REMARK  250  A    between atoms: _629  and  _630
REMARK  251  A    between atoms: _635  and  _636
REMARK                            x       y       z     vdW  Elec       q    Type
REMARK                         _______ _______ _______ _____ _____    ______ ____
ROOT
ATOM      1  O   HOH     1      13.052   7.298  -8.385  0.00  0.00    +0.000 OA
ENDROOT
TORSDOF 0
REMARK  Name = ../refined-set-2016/2ihj/2ihj_pocket.pdb
REMARK  251 active torsions:
REMARK  status: ('A' for Active; 'I' for Inactive)
REMARK    1  A    between atoms: _1  and  _3
REMARK    2  A    between atoms: _3  and  _4
REMARK    3  A    between atoms: _3  and  _6
REMARK    4  A    between atoms: _6  and  _7
REMARK    5  A    between atoms: _11  and  _12
REMARK    6  A    between atoms: _17  and  _19
REMARK    7  A    between atoms: _19  and  _20
REMARK    8  A    between atoms: _23  and  _25
REMARK    9  A    between atoms: _25  and  _26
REMARK   10  A    between atoms: _25  and  _28
REMARK   11  A    between atoms: _28  and  _29
REMARK   12  A    between atoms: _31  and  _33
REMARK   13  A    between atoms: _33  and  _34
REMARK   14  A    between atoms: _33  and  _36
REMARK   15  A    between atoms: _36  and  _37
REMARK   16  A    between atoms: _41  and  _42
REMARK   17  A    between atoms: _47  and  _49
REMARK   18  A    between atoms: _49  and  _50
REMARK   19  A    between atoms: _49  and  _52
REMARK   20  A    between atoms: _52  and  _53
REMARK   21  A    between atoms: _56  and  _58
REMARK   22  A    between atoms: _58  and  _59
REMARK   23  A    between atoms: _58  and  _61
REMARK   24  A    between atoms: _61  and  _62
REMARK   25  A    between atoms: _62  and  _63
REMARK   26  A    between atoms: _63  and  _64
REMARK   27  A    between atoms: _73  and  _75
REMARK   28  A    between atoms: _75  and  _76
REMARK   29  A    between atoms: _75  and  _78
REMARK   30  A    between atoms: _78  and  _79
REMARK   31  A    between atoms: _85  and  _87
REMARK   32  A    between atoms: _87  and  _88
REMARK   33  A    between atoms: _87  and  _90
REMARK   34  A    between atoms: _90  and  _91
REMARK   35  A    between atoms: _96  and  _98
REMARK   36  A    between atoms: _98  and  _99
REMARK   37  A    between atoms: _102  and  _104
REMARK   38  A    between atoms: _104  and  _105
REMARK   39  A    between atoms: _104  and  _107
REMARK   40  A    between atoms: _107  and  _108
REMARK   41  A    between atoms: _113  and  _115
REMARK   42  A    between atoms: _115  and  _116
REMARK   43  A    between atoms: _115  and  _118
REMARK   44  A    between atoms: _118  and  _119
REMARK   45  A    between atoms: _122  and  _124
REMARK   46  A    between atoms: _124  and  _125
REMARK   47  A    between atoms: _124  and  _127
REMARK   48  A    between atoms: _127  and  _128
REMARK   49  A    between atoms: _131  and  _133
REMARK   50  A    between atoms: _133  and  _134
REMARK   51  A    between atoms: _136  and  _138
REMARK   52  A    between atoms: _138  and  _139
REMARK   53  A    between atoms: _138  and  _141
REMARK   54  A    between atoms: _141  and  _142
REMARK   55  A    between atoms: _144  and  _146
REMARK   56  A    between atoms: _146  and  _147
REMARK   57  A    between atoms: _146  and  _149
REMARK   58  A    between atoms: _149  and  _150
REMARK   59  A    between atoms: _150  and  _151
REMARK   60  A    between atoms: _153  and  _155
REMARK   61  A    between atoms: _155  and  _156
REMARK   62  A    between atoms: _155  and  _158
REMARK   63  A    between atoms: _158  and  _159
REMARK   64  A    between atoms: _159  and  _160
REMARK   65  A    between atoms: _163  and  _165
REMARK   66  A    between atoms: _165  and  _166
REMARK   67  A    between atoms: _165  and  _168
REMARK   68  A    between atoms: _168  and  _169
REMARK   69  A    between atoms: _174  and  _175
REMARK   70  A    between atoms: _177  and  _179
REMARK   71  A    between atoms: _179  and  _180
REMARK   72  A    between atoms: _179  and  _182
REMARK   73  A    between atoms: _185  and  _187
REMARK   74  A    between atoms: _187  and  _188
REMARK   75  A    between atoms: _187  and  _190
REMARK   76  A    between atoms: _190  and  _191
REMARK   77  A    between atoms: _194  and  _196
REMARK   78  A    between atoms: _196  and  _197
REMARK   79  A    between atoms: _196  and  _199
REMARK   80  A    between atoms: _199  and  _200
REMARK   81  A    between atoms: _200  and  _201
REMARK   82  A    between atoms: _201  and  _202
REMARK   83  A    between atoms: _202  and  _203
REMARK   84  A    between atoms: _207  and  _209
REMARK   85  A    between atoms: _209  and  _210
REMARK   86  A    between atoms: _209  and  _212
REMARK   87  A    between atoms: _212  and  _213
REMARK   88  A    between atoms: _216  and  _218
REMARK   89  A    between atoms: _218  and  _219
REMARK   90  A    between atoms: _218  and  _221
REMARK   91  A    between atoms: _221  and  _222
REMARK   92  A    between atoms: _222  and  _223
REMARK   93  A    between atoms: _225  and  _227
REMARK   94  A    between atoms: _227  and  _228
REMARK   95  A    between atoms: _227  and  _230
REMARK   96  A    between atoms: _230  and  _231
REMARK   97  A    between atoms: _241  and  _243
REMARK   98  A    between atoms: _243  and  _244
REMARK   99  A    between atoms: _243  and  _246
REMARK  100  A    between atoms: _246  and  _247
REMARK  101  A    between atoms: _250  and  _252
REMARK  102  A    between atoms: _252  and  _253
REMARK  103  A    between atoms: _252  and  _255
REMARK  104  A    between atoms: _255  and  _256
REMARK  105  A    between atoms: _262  and  _264
REMARK  106  A    between atoms: _264  and  _265
REMARK  107  A    between atoms: _264  and  _267
REMARK  108  A    between atoms: _267  and  _268
REMARK  109  A    between atoms: _271  and  _273
REMARK  110  A    between atoms: _273  and  _274
REMARK  111  A    between atoms: _276  and  _278
REMARK  112  A    between atoms: _278  and  _279
REMARK  113  A    between atoms: _278  and  _281
REMARK  114  A    between atoms: _281  and  _282
REMARK  115  A    between atoms: _285  and  _287
REMARK  116  A    between atoms: _287  and  _288
REMARK  117  A    between atoms: _287  and  _290
REMARK  118  A    between atoms: _290  and  _291
REMARK  119  A    between atoms: _294  and  _296
REMARK  120  A    between atoms: _296  and  _297
REMARK  121  A    between atoms: _296  and  _299
REMARK  122  A    between atoms: _299  and  _300
REMARK  123  A    between atoms: _303  and  _305
REMARK  124  A    between atoms: _305  and  _306
REMARK  125  A    between atoms: _305  and  _308
REMARK  126  A    between atoms: _308  and  _309
REMARK  127  A    between atoms: _319  and  _321
REMARK  128  A    between atoms: _321  and  _322
REMARK  129  A    between atoms: _321  and  _324
REMARK  130  A    between atoms: _324  and  _325
REMARK  131  A    between atoms: _325  and  _326
REMARK  132  A    between atoms: _329  and  _331
REMARK  133  A    between atoms: _331  and  _332
REMARK  134  A    between atoms: _331  and  _334
REMARK  135  A    between atoms: _334  and  _335
REMARK  136  A    between atoms: _335  and  _336
REMARK  137  A    between atoms: _336  and  _337
REMARK  138  A    between atoms: _346  and  _348
REMARK  139  A    between atoms: _348  and  _349
REMARK  140  A    between atoms: _348  and  _351
REMARK  141  A    between atoms: _351  and  _352
REMARK  142  A    between atoms: _357  and  _358
REMARK  143  A    between atoms: _360  and  _362
REMARK  144  A    between atoms: _362  and  _363
REMARK  145  A    between atoms: _362  and  _365
REMARK  146  A    between atoms: _365  and  _366
REMARK  147  A    between atoms: _366  and  _367
REMARK  148  A    between atoms: _372  and  _374
REMARK  149  A    between atoms: _374  and  _375
REMARK  150  A    between atoms: _374  and  _377
REMARK  151  A    between atoms: _377  and  _378
REMARK  152  A    between atoms: _384  and  _386
REMARK  153  A    between atoms: _386  and  _387
REMARK  154  A    between atoms: _386  and  _389
REMARK  155  A    between atoms: _389  and  _390
REMARK  156  A    between atoms: _390  and  _391
REMARK  157  A    between atoms: _391  and  _392
REMARK  158  A    between atoms: _392  and  _393
REMARK  159  A    between atoms: _397  and  _399
REMARK  160  A    between atoms: _399  and  _400
REMARK  161  A    between atoms: _402  and  _404
REMARK  162  A    between atoms: _404  and  _405
REMARK  163  A    between atoms: _404  and  _407
REMARK  164  A    between atoms: _407  and  _408
REMARK  165  A    between atoms: _414  and  _415
REMARK  166  A    between atoms: _420  and  _422
REMARK  167  A    between atoms: _422  and  _423
REMARK  168  A    between atoms: _422  and  _425
REMARK  169  A    between atoms: _425  and  _426
REMARK  170  A    between atoms: _426  and  _427
REMARK  171  A    between atoms: _427  and  _428
REMARK  172  A    between atoms: _437  and  _439
REMARK  173  A    between atoms: _439  and  _440
REMARK  174  A    between atoms: _442  and  _444
REMARK  175  A    between atoms: _444  and  _445
REMARK  176  A    between atoms: _444  and  _447
REMARK  177  A    between atoms: _447  and  _448
REMARK  178  A    between atoms: _453  and  _455
REMARK  179  A    between atoms: _455  and  _456
REMARK  180  A    between atoms: _455  and  _458
REMARK  181  A    between atoms: _458  and  _459
REMARK  182  A    between atoms: _463  and  _464
REMARK  183  A    between atoms: _469  and  _471
REMARK  184  A    between atoms: _471  and  _472
REMARK  185  A    between atoms: _475  and  _477
REMARK  186  A    between atoms: _477  and  _478
REMARK  187  A    between atoms: _477  and  _480
REMARK  188  A    between atoms: _480  and  _481
REMARK  189  A    between atoms: _486  and  _488
REMARK  190  A    between atoms: _488  and  _489
REMARK  191  A    between atoms: _488  and  _491
REMARK  192  A    between atoms: _491  and  _492
REMARK  193  A    between atoms: _495  and  _497
REMARK  194  A    between atoms: _497  and  _498
REMARK  195  A    between atoms: _497  and  _500
REMARK  196  A    between atoms: _500  and  _501
REMARK  197  A    between atoms: _503  and  _505
REMARK  198  A    between atoms: _505  and  _506
REMARK  199  A    between atoms: _505  and  _508
REMARK  200  A    between atoms: _508  and  _509
REMARK  201  A    between atoms: _515  and  _517
REMARK  202  A    between atoms: _517  and  _518
REMARK  203  A    between atoms: _517  and  _520
REMARK  204  A    between atoms: _520  and  _521
REMARK  205  A    between atoms: _521  and  _522
REMARK  206  A    between atoms: _525  and  _527
REMARK  207  A    between atoms: _527  and  _528
REMARK  208  A    between atoms: _527  and  _530
REMARK  209  A    between atoms: _533  and  _535
REMARK  210  A    between atoms: _535  and  _536
REMARK  211  A    between atoms: _535  and  _538
REMARK  212  A    between atoms: _538  and  _539
REMARK  213  A    between atoms: _542  and  _544
REMARK  214  A    between atoms: _544  and  _545
REMARK  215  A    between atoms: _544  and  _547
REMARK  216  A    between atoms: _550  and  _552
REMARK  217  A    between atoms: _552  and  _553
REMARK  218  A    between atoms: _556  and  _558
REMARK  219  A    between atoms: _558  and  _559
REMARK  220  A    between atoms: _558  and  _561
REMARK  221  A    between atoms: _561  and  _562
REMARK  222  A    between atoms: _564  and  _566
REMARK  223  A    between atoms: _566  and  _567
REMARK  224  A    between atoms: _566  and  _569
REMARK  225  A    between atoms: _569  and  _570
REMARK  226  A    between atoms: _572  and  _574
REMARK  227  A    between atoms: _574  and  _575
REMARK  228  A    between atoms: _574  and  _577
REMARK  229  A    between atoms: _577  and  _578
REMARK  230  A    between atoms: _581  and  _583
REMARK  231  A    between atoms: _583  and  _584
REMARK  232  A    between atoms: _583  and  _586
REMARK  233  A    between atoms: _586  and  _587
REMARK  234  A    between atoms: _592  and  _593
REMARK  235  A    between atoms: _595  and  _597
REMARK  236  A    between atoms: _597  and  _598
REMARK  237  A    between atoms: _597  and  _600
REMARK  238  A    between atoms: _600  and  _601
REMARK  239  A    between atoms: _607  and  _609
REMARK  240  A    between atoms: _609  and  _610
REMARK  241  A    between atoms: _609  and  _612
REMARK  242  A    between atoms: _612  and  _613
REMARK  243  A    between atoms: _615  and  _617
REMARK  244  A    between atoms: _617  and  _618
REMARK  245  A    between atoms: _617  and  _620
REMARK  246  A    between atoms: _620  and  _621
REMARK  247  A    between atoms: _624  and  _626
REMARK  248  A    between atoms: _626  and  _627
REMARK  249  A    between atoms: _626  and  _629
REMARK  250  A    between atoms: _629  and  _630
REMARK  251  A    between atoms: _635  and  _636
REMARK                            x       y       z     vdW  Elec       q    Type
REMARK                         _______ _______ _______ _____ _____    ______ ____
ROOT
ATOM      1  O   HOH     1       6.735  -8.063   7.136  0.00  0.00    +0.000 OA
ENDROOT
TORSDOF 0
REMARK  Name = ../refined-set-2016/2ihj/2ihj_pocket.pdb
REMARK  251 active torsions:
REMARK  status: ('A' for Active; 'I' for Inactive)
REMARK    1  A    between atoms: _1  and  _3
REMARK    2  A    between atoms: _3  and  _4
REMARK    3  A    between atoms: _3  and  _6
REMARK    4  A    between atoms: _6  and  _7
REMARK    5  A    between atoms: _11  and  _12
REMARK    6  A    between atoms: _17  and  _19
REMARK    7  A    between atoms: _19  and  _20
REMARK    8  A    between atoms: _23  and  _25
REMARK    9  A    between atoms: _25  and  _26
REMARK   10  A    between atoms: _25  and  _28
REMARK   11  A    between atoms: _28  and  _29
REMARK   12  A    between atoms: _31  and  _33
REMARK   13  A    between atoms: _33  and  _34
REMARK   14  A    between atoms: _33  and  _36
REMARK   15  A    between atoms: _36  and  _37
REMARK   16  A    between atoms: _41  and  _42
REMARK   17  A    between atoms: _47  and  _49
REMARK   18  A    between atoms: _49  and  _50
REMARK   19  A    between atoms: _49  and  _52
REMARK   20  A    between atoms: _52  and  _53
REMARK   21  A    between atoms: _56  and  _58
REMARK   22  A    between atoms: _58  and  _59
REMARK   23  A    between atoms: _58  and  _61
REMARK   24  A    between atoms: _61  and  _62
REMARK   25  A    between atoms: _62  and  _63
REMARK   26  A    between atoms: _63  and  _64
REMARK   27  A    between atoms: _73  and  _75
REMARK   28  A    between atoms: _75  and  _76
REMARK   29  A    between atoms: _75  and  _78
REMARK   30  A    between atoms: _78  and  _79
REMARK   31  A    between atoms: _85  and  _87
REMARK   32  A    between atoms: _87  and  _88
REMARK   33  A    between atoms: _87  and  _90
REMARK   34  A    between atoms: _90  and  _91
REMARK   35  A    between atoms: _96  and  _98
REMARK   36  A    between atoms: _98  and  _99
REMARK   37  A    between atoms: _102  and  _104
REMARK   38  A    between atoms: _104  and  _105
REMARK   39  A    between atoms: _104  and  _107
REMARK   40  A    between atoms: _107  and  _108
REMARK   41  A    between atoms: _113  and  _115
REMARK   42  A    between atoms: _115  and  _116
REMARK   43  A    between atoms: _115  and  _118
REMARK   44  A    between atoms: _118  and  _119
REMARK   45  A    between atoms: _122  and  _124
REMARK   46  A    between atoms: _124  and  _125
REMARK   47  A    between atoms: _124  and  _127
REMARK   48  A    between atoms: _127  and  _128
REMARK   49  A    between atoms: _131  and  _133
REMARK   50  A    between atoms: _133  and  _134
REMARK   51  A    between atoms: _136  and  _138
REMARK   52  A    between atoms: _138  and  _139
REMARK   53  A    between atoms: _138  and  _141
REMARK   54  A    between atoms: _141  and  _142
REMARK   55  A    between atoms: _144  and  _146
REMARK   56  A    between atoms: _146  and  _147
REMARK   57  A    between atoms: _146  and  _149
REMARK   58  A    between atoms: _149  and  _150
REMARK   59  A    between atoms: _150  and  _151
REMARK   60  A    between atoms: _153  and  _155
REMARK   61  A    between atoms: _155  and  _156
REMARK   62  A    between atoms: _155  and  _158
REMARK   63  A    between atoms: _158  and  _159
REMARK   64  A    between atoms: _159  and  _160
REMARK   65  A    between atoms: _163  and  _165
REMARK   66  A    between atoms: _165  and  _166
REMARK   67  A    between atoms: _165  and  _168
REMARK   68  A    between atoms: _168  and  _169
REMARK   69  A    between atoms: _174  and  _175
REMARK   70  A    between atoms: _177  and  _179
REMARK   71  A    between atoms: _179  and  _180
REMARK   72  A    between atoms: _179  and  _182
REMARK   73  A    between atoms: _185  and  _187
REMARK   74  A    between atoms: _187  and  _188
REMARK   75  A    between atoms: _187  and  _190
REMARK   76  A    between atoms: _190  and  _191
REMARK   77  A    between atoms: _194  and  _196
REMARK   78  A    between atoms: _196  and  _197
REMARK   79  A    between atoms: _196  and  _199
REMARK   80  A    between atoms: _199  and  _200
REMARK   81  A    between atoms: _200  and  _201
REMARK   82  A    between atoms: _201  and  _202
REMARK   83  A    between atoms: _202  and  _203
REMARK   84  A    between atoms: _207  and  _209
REMARK   85  A    between atoms: _209  and  _210
REMARK   86  A    between atoms: _209  and  _212
REMARK   87  A    between atoms: _212  and  _213
REMARK   88  A    between atoms: _216  and  _218
REMARK   89  A    between atoms: _218  and  _219
REMARK   90  A    between atoms: _218  and  _221
REMARK   91  A    between atoms: _221  and  _222
REMARK   92  A    between atoms: _222  and  _223
REMARK   93  A    between atoms: _225  and  _227
REMARK   94  A    between atoms: _227  and  _228
REMARK   95  A    between atoms: _227  and  _230
REMARK   96  A    between atoms: _230  and  _231
REMARK   97  A    between atoms: _241  and  _243
REMARK   98  A    between atoms: _243  and  _244
REMARK   99  A    between atoms: _243  and  _246
REMARK  100  A    between atoms: _246  and  _247
REMARK  101  A    between atoms: _250  and  _252
REMARK  102  A    between atoms: _252  and  _253
REMARK  103  A    between atoms: _252  and  _255
REMARK  104  A    between atoms: _255  and  _256
REMARK  105  A    between atoms: _262  and  _264
REMARK  106  A    between atoms: _264  and  _265
REMARK  107  A    between atoms: _264  and  _267
REMARK  108  A    between atoms: _267  and  _268
REMARK  109  A    between atoms: _271  and  _273
REMARK  110  A    between atoms: _273  and  _274
REMARK  111  A    between atoms: _276  and  _278
REMARK  112  A    between atoms: _278  and  _279
REMARK  113  A    between atoms: _278  and  _281
REMARK  114  A    between atoms: _281  and  _282
REMARK  115  A    between atoms: _285  and  _287
REMARK  116  A    between atoms: _287  and  _288
REMARK  117  A    between atoms: _287  and  _290
REMARK  118  A    between atoms: _290  and  _291
REMARK  119  A    between atoms: _294  and  _296
REMARK  120  A    between atoms: _296  and  _297
REMARK  121  A    between atoms: _296  and  _299
REMARK  122  A    between atoms: _299  and  _300
REMARK  123  A    between atoms: _303  and  _305
REMARK  124  A    between atoms: _305  and  _306
REMARK  125  A    between atoms: _305  and  _308
REMARK  126  A    between atoms: _308  and  _309
REMARK  127  A    between atoms: _319  and  _321
REMARK  128  A    between atoms: _321  and  _322
REMARK  129  A    between atoms: _321  and  _324
REMARK  130  A    between atoms: _324  and  _325
REMARK  131  A    between atoms: _325  and  _326
REMARK  132  A    between atoms: _329  and  _331
REMARK  133  A    between atoms: _331  and  _332
REMARK  134  A    between atoms: _331  and  _334
REMARK  135  A    between atoms: _334  and  _335
REMARK  136  A    between atoms: _335  and  _336
REMARK  137  A    between atoms: _336  and  _337
REMARK  138  A    between atoms: _346  and  _348
REMARK  139  A    between atoms: _348  and  _349
REMARK  140  A    between atoms: _348  and  _351
REMARK  141  A    between atoms: _351  and  _352
REMARK  142  A    between atoms: _357  and  _358
REMARK  143  A    between atoms: _360  and  _362
REMARK  144  A    between atoms: _362  and  _363
REMARK  145  A    between atoms: _362  and  _365
REMARK  146  A    between atoms: _365  and  _366
REMARK  147  A    between atoms: _366  and  _367
REMARK  148  A    between atoms: _372  and  _374
REMARK  149  A    between atoms: _374  and  _375
REMARK  150  A    between atoms: _374  and  _377
REMARK  151  A    between atoms: _377  and  _378
REMARK  152  A    between atoms: _384  and  _386
REMARK  153  A    between atoms: _386  and  _387
REMARK  154  A    between atoms: _386  and  _389
REMARK  155  A    between atoms: _389  and  _390
REMARK  156  A    between atoms: _390  and  _391
REMARK  157  A    between atoms: _391  and  _392
REMARK  158  A    between atoms: _392  and  _393
REMARK  159  A    between atoms: _397  and  _399
REMARK  160  A    between atoms: _399  and  _400
REMARK  161  A    between atoms: _402  and  _404
REMARK  162  A    between atoms: _404  and  _405
REMARK  163  A    between atoms: _404  and  _407
REMARK  164  A    between atoms: _407  and  _408
REMARK  165  A    between atoms: _414  and  _415
REMARK  166  A    between atoms: _420  and  _422
REMARK  167  A    between atoms: _422  and  _423
REMARK  168  A    between atoms: _422  and  _425
REMARK  169  A    between atoms: _425  and  _426
REMARK  170  A    between atoms: _426  and  _427
REMARK  171  A    between atoms: _427  and  _428
REMARK  172  A    between atoms: _437  and  _439
REMARK  173  A    between atoms: _439  and  _440
REMARK  174  A    between atoms: _442  and  _444
REMARK  175  A    between atoms: _444  and  _445
REMARK  176  A    between atoms: _444  and  _447
REMARK  177  A    between atoms: _447  and  _448
REMARK  178  A    between atoms: _453  and  _455
REMARK  179  A    between atoms: _455  and  _456
REMARK  180  A    between atoms: _455  and  _458
REMARK  181  A    between atoms: _458  and  _459
REMARK  182  A    between atoms: _463  and  _464
REMARK  183  A    between atoms: _469  and  _471
REMARK  184  A    between atoms: _471  and  _472
REMARK  185  A    between atoms: _475  and  _477
REMARK  186  A    between atoms: _477  and  _478
REMARK  187  A    between atoms: _477  and  _480
REMARK  188  A    between atoms: _480  and  _481
REMARK  189  A    between atoms: _486  and  _488
REMARK  190  A    between atoms: _488  and  _489
REMARK  191  A    between atoms: _488  and  _491
REMARK  192  A    between atoms: _491  and  _492
REMARK  193  A    between atoms: _495  and  _497
REMARK  194  A    between atoms: _497  and  _498
REMARK  195  A    between atoms: _497  and  _500
REMARK  196  A    between atoms: _500  and  _501
REMARK  197  A    between atoms: _503  and  _505
REMARK  198  A    between atoms: _505  and  _506
REMARK  199  A    between atoms: _505  and  _508
REMARK  200  A    between atoms: _508  and  _509
REMARK  201  A    between atoms: _515  and  _517
REMARK  202  A    between atoms: _517  and  _518
REMARK  203  A    between atoms: _517  and  _520
REMARK  204  A    between atoms: _520  and  _521
REMARK  205  A    between atoms: _521  and  _522
REMARK  206  A    between atoms: _525  and  _527
REMARK  207  A    between atoms: _527  and  _528
REMARK  208  A    between atoms: _527  and  _530
REMARK  209  A    between atoms: _533  and  _535
REMARK  210  A    between atoms: _535  and  _536
REMARK  211  A    between atoms: _535  and  _538
REMARK  212  A    between atoms: _538  and  _539
REMARK  213  A    between atoms: _542  and  _544
REMARK  214  A    between atoms: _544  and  _545
REMARK  215  A    between atoms: _544  and  _547
REMARK  216  A    between atoms: _550  and  _552
REMARK  217  A    between atoms: _552  and  _553
REMARK  218  A    between atoms: _556  and  _558
REMARK  219  A    between atoms: _558  and  _559
REMARK  220  A    between atoms: _558  and  _561
REMARK  221  A    between atoms: _561  and  _562
REMARK  222  A    between atoms: _564  and  _566
REMARK  223  A    between atoms: _566  and  _567
REMARK  224  A    between atoms: _566  and  _569
REMARK  225  A    between atoms: _569  and  _570
REMARK  226  A    between atoms: _572  and  _574
REMARK  227  A    between atoms: _574  and  _575
REMARK  228  A    between atoms: _574  and  _577
REMARK  229  A    between atoms: _577  and  _578
REMARK  230  A    between atoms: _581  and  _583
REMARK  231  A    between atoms: _583  and  _584
REMARK  232  A    between atoms: _583  and  _586
REMARK  233  A    between atoms: _586  and  _587
REMARK  234  A    between atoms: _592  and  _593
REMARK  235  A    between atoms: _595  and  _597
REMARK  236  A    between atoms: _597  and  _598
REMARK  237  A    between atoms: _597  and  _600
REMARK  238  A    between atoms: _600  and  _601
REMARK  239  A    between atoms: _607  and  _609
REMARK  240  A    between atoms: _609  and  _610
REMARK  241  A    between atoms: _609  and  _612
REMARK  242  A    between atoms: _612  and  _613
REMARK  243  A    between atoms: _615  and  _617
REMARK  244  A    between atoms: _617  and  _618
REMARK  245  A    between atoms: _617  and  _620
REMARK  246  A    between atoms: _620  and  _621
REMARK  247  A    between atoms: _624  and  _626
REMARK  248  A    between atoms: _626  and  _627
REMARK  249  A    between atoms: _626  and  _629
REMARK  250  A    between atoms: _629  and  _630
REMARK  251  A    between atoms: _635  and  _636
REMARK                            x       y       z     vdW  Elec       q    Type
REMARK                         _______ _______ _______ _____ _____    ______ ____
ROOT
ATOM      1  O   HOH     1      11.331  11.078   0.472  0.00  0.00    +0.000 OA
ENDROOT
TORSDOF 0
REMARK  Name = ../refined-set-2016/2ihj/2ihj_pocket.pdb
REMARK  251 active torsions:
REMARK  status: ('A' for Active; 'I' for Inactive)
REMARK    1  A    between atoms: _1  and  _3
REMARK    2  A    between atoms: _3  and  _4
REMARK    3  A    between atoms: _3  and  _6
REMARK    4  A    between atoms: _6  and  _7
REMARK    5  A    between atoms: _11  and  _12
REMARK    6  A    between atoms: _17  and  _19
REMARK    7  A    between atoms: _19  and  _20
REMARK    8  A    between atoms: _23  and  _25
REMARK    9  A    between atoms: _25  and  _26
REMARK   10  A    between atoms: _25  and  _28
REMARK   11  A    between atoms: _28  and  _29
REMARK   12  A    between atoms: _31  and  _33
REMARK   13  A    between atoms: _33  and  _34
REMARK   14  A    between atoms: _33  and  _36
REMARK   15  A    between atoms: _36  and  _37
REMARK   16  A    between atoms: _41  and  _42
REMARK   17  A    between atoms: _47  and  _49
REMARK   18  A    between atoms: _49  and  _50
REMARK   19  A    between atoms: _49  and  _52
REMARK   20  A    between atoms: _52  and  _53
REMARK   21  A    between atoms: _56  and  _58
REMARK   22  A    between atoms: _58  and  _59
REMARK   23  A    between atoms: _58  and  _61
REMARK   24  A    between atoms: _61  and  _62
REMARK   25  A    between atoms: _62  and  _63
REMARK   26  A    between atoms: _63  and  _64
REMARK   27  A    between atoms: _73  and  _75
REMARK   28  A    between atoms: _75  and  _76
REMARK   29  A    between atoms: _75  and  _78
REMARK   30  A    between atoms: _78  and  _79
REMARK   31  A    between atoms: _85  and  _87
REMARK   32  A    between atoms: _87  and  _88
REMARK   33  A    between atoms: _87  and  _90
REMARK   34  A    between atoms: _90  and  _91
REMARK   35  A    between atoms: _96  and  _98
REMARK   36  A    between atoms: _98  and  _99
REMARK   37  A    between atoms: _102  and  _104
REMARK   38  A    between atoms: _104  and  _105
REMARK   39  A    between atoms: _104  and  _107
REMARK   40  A    between atoms: _107  and  _108
REMARK   41  A    between atoms: _113  and  _115
REMARK   42  A    between atoms: _115  and  _116
REMARK   43  A    between atoms: _115  and  _118
REMARK   44  A    between atoms: _118  and  _119
REMARK   45  A    between atoms: _122  and  _124
REMARK   46  A    between atoms: _124  and  _125
REMARK   47  A    between atoms: _124  and  _127
REMARK   48  A    between atoms: _127  and  _128
REMARK   49  A    between atoms: _131  and  _133
REMARK   50  A    between atoms: _133  and  _134
REMARK   51  A    between atoms: _136  and  _138
REMARK   52  A    between atoms: _138  and  _139
REMARK   53  A    between atoms: _138  and  _141
REMARK   54  A    between atoms: _141  and  _142
REMARK   55  A    between atoms: _144  and  _146
REMARK   56  A    between atoms: _146  and  _147
REMARK   57  A    between atoms: _146  and  _149
REMARK   58  A    between atoms: _149  and  _150
REMARK   59  A    between atoms: _150  and  _151
REMARK   60  A    between atoms: _153  and  _155
REMARK   61  A    between atoms: _155  and  _156
REMARK   62  A    between atoms: _155  and  _158
REMARK   63  A    between atoms: _158  and  _159
REMARK   64  A    between atoms: _159  and  _160
REMARK   65  A    between atoms: _163  and  _165
REMARK   66  A    between atoms: _165  and  _166
REMARK   67  A    between atoms: _165  and  _168
REMARK   68  A    between atoms: _168  and  _169
REMARK   69  A    between atoms: _174  and  _175
REMARK   70  A    between atoms: _177  and  _179
REMARK   71  A    between atoms: _179  and  _180
REMARK   72  A    between atoms: _179  and  _182
REMARK   73  A    between atoms: _185  and  _187
REMARK   74  A    between atoms: _187  and  _188
REMARK   75  A    between atoms: _187  and  _190
REMARK   76  A    between atoms: _190  and  _191
REMARK   77  A    between atoms: _194  and  _196
REMARK   78  A    between atoms: _196  and  _197
REMARK   79  A    between atoms: _196  and  _199
REMARK   80  A    between atoms: _199  and  _200
REMARK   81  A    between atoms: _200  and  _201
REMARK   82  A    between atoms: _201  and  _202
REMARK   83  A    between atoms: _202  and  _203
REMARK   84  A    between atoms: _207  and  _209
REMARK   85  A    between atoms: _209  and  _210
REMARK   86  A    between atoms: _209  and  _212
REMARK   87  A    between atoms: _212  and  _213
REMARK   88  A    between atoms: _216  and  _218
REMARK   89  A    between atoms: _218  and  _219
REMARK   90  A    between atoms: _218  and  _221
REMARK   91  A    between atoms: _221  and  _222
REMARK   92  A    between atoms: _222  and  _223
REMARK   93  A    between atoms: _225  and  _227
REMARK   94  A    between atoms: _227  and  _228
REMARK   95  A    between atoms: _227  and  _230
REMARK   96  A    between atoms: _230  and  _231
REMARK   97  A    between atoms: _241  and  _243
REMARK   98  A    between atoms: _243  and  _244
REMARK   99  A    between atoms: _243  and  _246
REMARK  100  A    between atoms: _246  and  _247
REMARK  101  A    between atoms: _250  and  _252
REMARK  102  A    between atoms: _252  and  _253
REMARK  103  A    between atoms: _252  and  _255
REMARK  104  A    between atoms: _255  and  _256
REMARK  105  A    between atoms: _262  and  _264
REMARK  106  A    between atoms: _264  and  _265
REMARK  107  A    between atoms: _264  and  _267
REMARK  108  A    between atoms: _267  and  _268
REMARK  109  A    between atoms: _271  and  _273
REMARK  110  A    between atoms: _273  and  _274
REMARK  111  A    between atoms: _276  and  _278
REMARK  112  A    between atoms: _278  and  _279
REMARK  113  A    between atoms: _278  and  _281
REMARK  114  A    between atoms: _281  and  _282
REMARK  115  A    between atoms: _285  and  _287
REMARK  116  A    between atoms: _287  and  _288
REMARK  117  A    between atoms: _287  and  _290
REMARK  118  A    between atoms: _290  and  _291
REMARK  119  A    between atoms: _294  and  _296
REMARK  120  A    between atoms: _296  and  _297
REMARK  121  A    between atoms: _296  and  _299
REMARK  122  A    between atoms: _299  and  _300
REMARK  123  A    between atoms: _303  and  _305
REMARK  124  A    between atoms: _305  and  _306
REMARK  125  A    between atoms: _305  and  _308
REMARK  126  A    between atoms: _308  and  _309
REMARK  127  A    between atoms: _319  and  _321
REMARK  128  A    between atoms: _321  and  _322
REMARK  129  A    between atoms: _321  and  _324
REMARK  130  A    between atoms: _324  and  _325
REMARK  131  A    between atoms: _325  and  _326
REMARK  132  A    between atoms: _329  and  _331
REMARK  133  A    between atoms: _331  and  _332
REMARK  134  A    between atoms: _331  and  _334
REMARK  135  A    between atoms: _334  and  _335
REMARK  136  A    between atoms: _335  and  _336
REMARK  137  A    between atoms: _336  and  _337
REMARK  138  A    between atoms: _346  and  _348
REMARK  139  A    between atoms: _348  and  _349
REMARK  140  A    between atoms: _348  and  _351
REMARK  141  A    between atoms: _351  and  _352
REMARK  142  A    between atoms: _357  and  _358
REMARK  143  A    between atoms: _360  and  _362
REMARK  144  A    between atoms: _362  and  _363
REMARK  145  A    between atoms: _362  and  _365
REMARK  146  A    between atoms: _365  and  _366
REMARK  147  A    between atoms: _366  and  _367
REMARK  148  A    between atoms: _372  and  _374
REMARK  149  A    between atoms: _374  and  _375
REMARK  150  A    between atoms: _374  and  _377
REMARK  151  A    between atoms: _377  and  _378
REMARK  152  A    between atoms: _384  and  _386
REMARK  153  A    between atoms: _386  and  _387
REMARK  154  A    between atoms: _386  and  _389
REMARK  155  A    between atoms: _389  and  _390
REMARK  156  A    between atoms: _390  and  _391
REMARK  157  A    between atoms: _391  and  _392
REMARK  158  A    between atoms: _392  and  _393
REMARK  159  A    between atoms: _397  and  _399
REMARK  160  A    between atoms: _399  and  _400
REMARK  161  A    between atoms: _402  and  _404
REMARK  162  A    between atoms: _404  and  _405
REMARK  163  A    between atoms: _404  and  _407
REMARK  164  A    between atoms: _407  and  _408
REMARK  165  A    between atoms: _414  and  _415
REMARK  166  A    between atoms: _420  and  _422
REMARK  167  A    between atoms: _422  and  _423
REMARK  168  A    between atoms: _422  and  _425
REMARK  169  A    between atoms: _425  and  _426
REMARK  170  A    between atoms: _426  and  _427
REMARK  171  A    between atoms: _427  and  _428
REMARK  172  A    between atoms: _437  and  _439
REMARK  173  A    between atoms: _439  and  _440
REMARK  174  A    between atoms: _442  and  _444
REMARK  175  A    between atoms: _444  and  _445
REMARK  176  A    between atoms: _444  and  _447
REMARK  177  A    between atoms: _447  and  _448
REMARK  178  A    between atoms: _453  and  _455
REMARK  179  A    between atoms: _455  and  _456
REMARK  180  A    between atoms: _455  and  _458
REMARK  181  A    between atoms: _458  and  _459
REMARK  182  A    between atoms: _463  and  _464
REMARK  183  A    between atoms: _469  and  _471
REMARK  184  A    between atoms: _471  and  _472
REMARK  185  A    between atoms: _475  and  _477
REMARK  186  A    between atoms: _477  and  _478
REMARK  187  A    between atoms: _477  and  _480
REMARK  188  A    between atoms: _480  and  _481
REMARK  189  A    between atoms: _486  and  _488
REMARK  190  A    between atoms: _488  and  _489
REMARK  191  A    between atoms: _488  and  _491
REMARK  192  A    between atoms: _491  and  _492
REMARK  193  A    between atoms: _495  and  _497
REMARK  194  A    between atoms: _497  and  _498
REMARK  195  A    between atoms: _497  and  _500
REMARK  196  A    between atoms: _500  and  _501
REMARK  197  A    between atoms: _503  and  _505
REMARK  198  A    between atoms: _505  and  _506
REMARK  199  A    between atoms: _505  and  _508
REMARK  200  A    between atoms: _508  and  _509
REMARK  201  A    between atoms: _515  and  _517
REMARK  202  A    between atoms: _517  and  _518
REMARK  203  A    between atoms: _517  and  _520
REMARK  204  A    between atoms: _520  and  _521
REMARK  205  A    between atoms: _521  and  _522
REMARK  206  A    between atoms: _525  and  _527
REMARK  207  A    between atoms: _527  and  _528
REMARK  208  A    between atoms: _527  and  _530
REMARK  209  A    between atoms: _533  and  _535
REMARK  210  A    between atoms: _535  and  _536
REMARK  211  A    between atoms: _535  and  _538
REMARK  212  A    between atoms: _538  and  _539
REMARK  213  A    between atoms: _542  and  _544
REMARK  214  A    between atoms: _544  and  _545
REMARK  215  A    between atoms: _544  and  _547
REMARK  216  A    between atoms: _550  and  _552
REMARK  217  A    between atoms: _552  and  _553
REMARK  218  A    between atoms: _556  and  _558
REMARK  219  A    between atoms: _558  and  _559
REMARK  220  A    between atoms: _558  and  _561
REMARK  221  A    between atoms: _561  and  _562
REMARK  222  A    between atoms: _564  and  _566
REMARK  223  A    between atoms: _566  and  _567
REMARK  224  A    between atoms: _566  and  _569
REMARK  225  A    between atoms: _569  and  _570
REMARK  226  A    between atoms: _572  and  _574
REMARK  227  A    between atoms: _574  and  _575
REMARK  228  A    between atoms: _574  and  _577
REMARK  229  A    between atoms: _577  and  _578
REMARK  230  A    between atoms: _581  and  _583
REMARK  231  A    between atoms: _583  and  _584
REMARK  232  A    between atoms: _583  and  _586
REMARK  233  A    between atoms: _586  and  _587
REMARK  234  A    between atoms: _592  and  _593
REMARK  235  A    between atoms: _595  and  _597
REMARK  236  A    between atoms: _597  and  _598
REMARK  237  A    between atoms: _597  and  _600
REMARK  238  A    between atoms: _600  and  _601
REMARK  239  A    between atoms: _607  and  _609
REMARK  240  A    between atoms: _609  and  _610
REMARK  241  A    between atoms: _609  and  _612
REMARK  242  A    between atoms: _612  and  _613
REMARK  243  A    between atoms: _615  and  _617
REMARK  244  A    between atoms: _617  and  _618
REMARK  245  A    between atoms: _617  and  _620
REMARK  246  A    between atoms: _620  and  _621
REMARK  247  A    between atoms: _624  and  _626
REMARK  248  A    between atoms: _626  and  _627
REMARK  249  A    between atoms: _626  and  _629
REMARK  250  A    between atoms: _629  and  _630
REMARK  251  A    between atoms: _635  and  _636
REMARK                            x       y       z     vdW  Elec       q    Type
REMARK                         _______ _______ _______ _____ _____    ______ ____
ROOT
ATOM      1  O   HOH     1      20.176  -6.762   1.898  0.00  0.00    +0.000 OA
ENDROOT
TORSDOF 0
REMARK  Name = ../refined-set-2016/2ihj/2ihj_pocket.pdb
REMARK  251 active torsions:
REMARK  status: ('A' for Active; 'I' for Inactive)
REMARK    1  A    between atoms: _1  and  _3
REMARK    2  A    between atoms: _3  and  _4
REMARK    3  A    between atoms: _3  and  _6
REMARK    4  A    between atoms: _6  and  _7
REMARK    5  A    between atoms: _11  and  _12
REMARK    6  A    between atoms: _17  and  _19
REMARK    7  A    between atoms: _19  and  _20
REMARK    8  A    between atoms: _23  and  _25
REMARK    9  A    between atoms: _25  and  _26
REMARK   10  A    between atoms: _25  and  _28
REMARK   11  A    between atoms: _28  and  _29
REMARK   12  A    between atoms: _31  and  _33
REMARK   13  A    between atoms: _33  and  _34
REMARK   14  A    between atoms: _33  and  _36
REMARK   15  A    between atoms: _36  and  _37
REMARK   16  A    between atoms: _41  and  _42
REMARK   17  A    between atoms: _47  and  _49
REMARK   18  A    between atoms: _49  and  _50
REMARK   19  A    between atoms: _49  and  _52
REMARK   20  A    between atoms: _52  and  _53
REMARK   21  A    between atoms: _56  and  _58
REMARK   22  A    between atoms: _58  and  _59
REMARK   23  A    between atoms: _58  and  _61
REMARK   24  A    between atoms: _61  and  _62
REMARK   25  A    between atoms: _62  and  _63
REMARK   26  A    between atoms: _63  and  _64
REMARK   27  A    between atoms: _73  and  _75
REMARK   28  A    between atoms: _75  and  _76
REMARK   29  A    between atoms: _75  and  _78
REMARK   30  A    between atoms: _78  and  _79
REMARK   31  A    between atoms: _85  and  _87
REMARK   32  A    between atoms: _87  and  _88
REMARK   33  A    between atoms: _87  and  _90
REMARK   34  A    between atoms: _90  and  _91
REMARK   35  A    between atoms: _96  and  _98
REMARK   36  A    between atoms: _98  and  _99
REMARK   37  A    between atoms: _102  and  _104
REMARK   38  A    between atoms: _104  and  _105
REMARK   39  A    between atoms: _104  and  _107
REMARK   40  A    between atoms: _107  and  _108
REMARK   41  A    between atoms: _113  and  _115
REMARK   42  A    between atoms: _115  and  _116
REMARK   43  A    between atoms: _115  and  _118
REMARK   44  A    between atoms: _118  and  _119
REMARK   45  A    between atoms: _122  and  _124
REMARK   46  A    between atoms: _124  and  _125
REMARK   47  A    between atoms: _124  and  _127
REMARK   48  A    between atoms: _127  and  _128
REMARK   49  A    between atoms: _131  and  _133
REMARK   50  A    between atoms: _133  and  _134
REMARK   51  A    between atoms: _136  and  _138
REMARK   52  A    between atoms: _138  and  _139
REMARK   53  A    between atoms: _138  and  _141
REMARK   54  A    between atoms: _141  and  _142
REMARK   55  A    between atoms: _144  and  _146
REMARK   56  A    between atoms: _146  and  _147
REMARK   57  A    between atoms: _146  and  _149
REMARK   58  A    between atoms: _149  and  _150
REMARK   59  A    between atoms: _150  and  _151
REMARK   60  A    between atoms: _153  and  _155
REMARK   61  A    between atoms: _155  and  _156
REMARK   62  A    between atoms: _155  and  _158
REMARK   63  A    between atoms: _158  and  _159
REMARK   64  A    between atoms: _159  and  _160
REMARK   65  A    between atoms: _163  and  _165
REMARK   66  A    between atoms: _165  and  _166
REMARK   67  A    between atoms: _165  and  _168
REMARK   68  A    between atoms: _168  and  _169
REMARK   69  A    between atoms: _174  and  _175
REMARK   70  A    between atoms: _177  and  _179
REMARK   71  A    between atoms: _179  and  _180
REMARK   72  A    between atoms: _179  and  _182
REMARK   73  A    between atoms: _185  and  _187
REMARK   74  A    between atoms: _187  and  _188
REMARK   75  A    between atoms: _187  and  _190
REMARK   76  A    between atoms: _190  and  _191
REMARK   77  A    between atoms: _194  and  _196
REMARK   78  A    between atoms: _196  and  _197
REMARK   79  A    between atoms: _196  and  _199
REMARK   80  A    between atoms: _199  and  _200
REMARK   81  A    between atoms: _200  and  _201
REMARK   82  A    between atoms: _201  and  _202
REMARK   83  A    between atoms: _202  and  _203
REMARK   84  A    between atoms: _207  and  _209
REMARK   85  A    between atoms: _209  and  _210
REMARK   86  A    between atoms: _209  and  _212
REMARK   87  A    between atoms: _212  and  _213
REMARK   88  A    between atoms: _216  and  _218
REMARK   89  A    between atoms: _218  and  _219
REMARK   90  A    between atoms: _218  and  _221
REMARK   91  A    between atoms: _221  and  _222
REMARK   92  A    between atoms: _222  and  _223
REMARK   93  A    between atoms: _225  and  _227
REMARK   94  A    between atoms: _227  and  _228
REMARK   95  A    between atoms: _227  and  _230
REMARK   96  A    between atoms: _230  and  _231
REMARK   97  A    between atoms: _241  and  _243
REMARK   98  A    between atoms: _243  and  _244
REMARK   99  A    between atoms: _243  and  _246
REMARK  100  A    between atoms: _246  and  _247
REMARK  101  A    between atoms: _250  and  _252
REMARK  102  A    between atoms: _252  and  _253
REMARK  103  A    between atoms: _252  and  _255
REMARK  104  A    between atoms: _255  and  _256
REMARK  105  A    between atoms: _262  and  _264
REMARK  106  A    between atoms: _264  and  _265
REMARK  107  A    between atoms: _264  and  _267
REMARK  108  A    between atoms: _267  and  _268
REMARK  109  A    between atoms: _271  and  _273
REMARK  110  A    between atoms: _273  and  _274
REMARK  111  A    between atoms: _276  and  _278
REMARK  112  A    between atoms: _278  and  _279
REMARK  113  A    between atoms: _278  and  _281
REMARK  114  A    between atoms: _281  and  _282
REMARK  115  A    between atoms: _285  and  _287
REMARK  116  A    between atoms: _287  and  _288
REMARK  117  A    between atoms: _287  and  _290
REMARK  118  A    between atoms: _290  and  _291
REMARK  119  A    between atoms: _294  and  _296
REMARK  120  A    between atoms: _296  and  _297
REMARK  121  A    between atoms: _296  and  _299
REMARK  122  A    between atoms: _299  and  _300
REMARK  123  A    between atoms: _303  and  _305
REMARK  124  A    between atoms: _305  and  _306
REMARK  125  A    between atoms: _305  and  _308
REMARK  126  A    between atoms: _308  and  _309
REMARK  127  A    between atoms: _319  and  _321
REMARK  128  A    between atoms: _321  and  _322
REMARK  129  A    between atoms: _321  and  _324
REMARK  130  A    between atoms: _324  and  _325
REMARK  131  A    between atoms: _325  and  _326
REMARK  132  A    between atoms: _329  and  _331
REMARK  133  A    between atoms: _331  and  _332
REMARK  134  A    between atoms: _331  and  _334
REMARK  135  A    between atoms: _334  and  _335
REMARK  136  A    between atoms: _335  and  _336
REMARK  137  A    between atoms: _336  and  _337
REMARK  138  A    between atoms: _346  and  _348
REMARK  139  A    between atoms: _348  and  _349
REMARK  140  A    between atoms: _348  and  _351
REMARK  141  A    between atoms: _351  and  _352
REMARK  142  A    between atoms: _357  and  _358
REMARK  143  A    between atoms: _360  and  _362
REMARK  144  A    between atoms: _362  and  _363
REMARK  145  A    between atoms: _362  and  _365
REMARK  146  A    between atoms: _365  and  _366
REMARK  147  A    between atoms: _366  and  _367
REMARK  148  A    between atoms: _372  and  _374
REMARK  149  A    between atoms: _374  and  _375
REMARK  150  A    between atoms: _374  and  _377
REMARK  151  A    between atoms: _377  and  _378
REMARK  152  A    between atoms: _384  and  _386
REMARK  153  A    between atoms: _386  and  _387
REMARK  154  A    between atoms: _386  and  _389
REMARK  155  A    between atoms: _389  and  _390
REMARK  156  A    between atoms: _390  and  _391
REMARK  157  A    between atoms: _391  and  _392
REMARK  158  A    between atoms: _392  and  _393
REMARK  159  A    between atoms: _397  and  _399
REMARK  160  A    between atoms: _399  and  _400
REMARK  161  A    between atoms: _402  and  _404
REMARK  162  A    between atoms: _404  and  _405
REMARK  163  A    between atoms: _404  and  _407
REMARK  164  A    between atoms: _407  and  _408
REMARK  165  A    between atoms: _414  and  _415
REMARK  166  A    between atoms: _420  and  _422
REMARK  167  A    between atoms: _422  and  _423
REMARK  168  A    between atoms: _422  and  _425
REMARK  169  A    between atoms: _425  and  _426
REMARK  170  A    between atoms: _426  and  _427
REMARK  171  A    between atoms: _427  and  _428
REMARK  172  A    between atoms: _437  and  _439
REMARK  173  A    between atoms: _439  and  _440
REMARK  174  A    between atoms: _442  and  _444
REMARK  175  A    between atoms: _444  and  _445
REMARK  176  A    between atoms: _444  and  _447
REMARK  177  A    between atoms: _447  and  _448
REMARK  178  A    between atoms: _453  and  _455
REMARK  179  A    between atoms: _455  and  _456
REMARK  180  A    between atoms: _455  and  _458
REMARK  181  A    between atoms: _458  and  _459
REMARK  182  A    between atoms: _463  and  _464
REMARK  183  A    between atoms: _469  and  _471
REMARK  184  A    between atoms: _471  and  _472
REMARK  185  A    between atoms: _475  and  _477
REMARK  186  A    between atoms: _477  and  _478
REMARK  187  A    between atoms: _477  and  _480
REMARK  188  A    between atoms: _480  and  _481
REMARK  189  A    between atoms: _486  and  _488
REMARK  190  A    between atoms: _488  and  _489
REMARK  191  A    between atoms: _488  and  _491
REMARK  192  A    between atoms: _491  and  _492
REMARK  193  A    between atoms: _495  and  _497
REMARK  194  A    between atoms: _497  and  _498
REMARK  195  A    between atoms: _497  and  _500
REMARK  196  A    between atoms: _500  and  _501
REMARK  197  A    between atoms: _503  and  _505
REMARK  198  A    between atoms: _505  and  _506
REMARK  199  A    between atoms: _505  and  _508
REMARK  200  A    between atoms: _508  and  _509
REMARK  201  A    between atoms: _515  and  _517
REMARK  202  A    between atoms: _517  and  _518
REMARK  203  A    between atoms: _517  and  _520
REMARK  204  A    between atoms: _520  and  _521
REMARK  205  A    between atoms: _521  and  _522
REMARK  206  A    between atoms: _525  and  _527
REMARK  207  A    between atoms: _527  and  _528
REMARK  208  A    between atoms: _527  and  _530
REMARK  209  A    between atoms: _533  and  _535
REMARK  210  A    between atoms: _535  and  _536
REMARK  211  A    between atoms: _535  and  _538
REMARK  212  A    between atoms: _538  and  _539
REMARK  213  A    between atoms: _542  and  _544
REMARK  214  A    between atoms: _544  and  _545
REMARK  215  A    between atoms: _544  and  _547
REMARK  216  A    between atoms: _550  and  _552
REMARK  217  A    between atoms: _552  and  _553
REMARK  218  A    between atoms: _556  and  _558
REMARK  219  A    between atoms: _558  and  _559
REMARK  220  A    between atoms: _558  and  _561
REMARK  221  A    between atoms: _561  and  _562
REMARK  222  A    between atoms: _564  and  _566
REMARK  223  A    between atoms: _566  and  _567
REMARK  224  A    between atoms: _566  and  _569
REMARK  225  A    between atoms: _569  and  _570
REMARK  226  A    between atoms: _572  and  _574
REMARK  227  A    between atoms: _574  and  _575
REMARK  228  A    between atoms: _574  and  _577
REMARK  229  A    between atoms: _577  and  _578
REMARK  230  A    between atoms: _581  and  _583
REMARK  231  A    between atoms: _583  and  _584
REMARK  232  A    between atoms: _583  and  _586
REMARK  233  A    between atoms: _586  and  _587
REMARK  234  A    between atoms: _592  and  _593
REMARK  235  A    between atoms: _595  and  _597
REMARK  236  A    between atoms: _597  and  _598
REMARK  237  A    between atoms: _597  and  _600
REMARK  238  A    between atoms: _600  and  _601
REMARK  239  A    between atoms: _607  and  _609
REMARK  240  A    between atoms: _609  and  _610
REMARK  241  A    between atoms: _609  and  _612
REMARK  242  A    between atoms: _612  and  _613
REMARK  243  A    between atoms: _615  and  _617
REMARK  244  A    between atoms: _617  and  _618
REMARK  245  A    between atoms: _617  and  _620
REMARK  246  A    between atoms: _620  and  _621
REMARK  247  A    between atoms: _624  and  _626
REMARK  248  A    between atoms: _626  and  _627
REMARK  249  A    between atoms: _626  and  _629
REMARK  250  A    between atoms: _629  and  _630
REMARK  251  A    between atoms: _635  and  _636
REMARK                            x       y       z     vdW  Elec       q    Type
REMARK                         _______ _______ _______ _____ _____    ______ ____
ROOT
ATOM      1  O   HOH     1       9.075  -7.089   6.053  0.00  0.00    +0.000 OA
ENDROOT
TORSDOF 0
REMARK  Name = ../refined-set-2016/2ihj/2ihj_pocket.pdb
REMARK  251 active torsions:
REMARK  status: ('A' for Active; 'I' for Inactive)
REMARK    1  A    between atoms: _1  and  _3
REMARK    2  A    between atoms: _3  and  _4
REMARK    3  A    between atoms: _3  and  _6
REMARK    4  A    between atoms: _6  and  _7
REMARK    5  A    between atoms: _11  and  _12
REMARK    6  A    between atoms: _17  and  _19
REMARK    7  A    between atoms: _19  and  _20
REMARK    8  A    between atoms: _23  and  _25
REMARK    9  A    between atoms: _25  and  _26
REMARK   10  A    between atoms: _25  and  _28
REMARK   11  A    between atoms: _28  and  _29
REMARK   12  A    between atoms: _31  and  _33
REMARK   13  A    between atoms: _33  and  _34
REMARK   14  A    between atoms: _33  and  _36
REMARK   15  A    between atoms: _36  and  _37
REMARK   16  A    between atoms: _41  and  _42
REMARK   17  A    between atoms: _47  and  _49
REMARK   18  A    between atoms: _49  and  _50
REMARK   19  A    between atoms: _49  and  _52
REMARK   20  A    between atoms: _52  and  _53
REMARK   21  A    between atoms: _56  and  _58
REMARK   22  A    between atoms: _58  and  _59
REMARK   23  A    between atoms: _58  and  _61
REMARK   24  A    between atoms: _61  and  _62
REMARK   25  A    between atoms: _62  and  _63
REMARK   26  A    between atoms: _63  and  _64
REMARK   27  A    between atoms: _73  and  _75
REMARK   28  A    between atoms: _75  and  _76
REMARK   29  A    between atoms: _75  and  _78
REMARK   30  A    between atoms: _78  and  _79
REMARK   31  A    between atoms: _85  and  _87
REMARK   32  A    between atoms: _87  and  _88
REMARK   33  A    between atoms: _87  and  _90
REMARK   34  A    between atoms: _90  and  _91
REMARK   35  A    between atoms: _96  and  _98
REMARK   36  A    between atoms: _98  and  _99
REMARK   37  A    between atoms: _102  and  _104
REMARK   38  A    between atoms: _104  and  _105
REMARK   39  A    between atoms: _104  and  _107
REMARK   40  A    between atoms: _107  and  _108
REMARK   41  A    between atoms: _113  and  _115
REMARK   42  A    between atoms: _115  and  _116
REMARK   43  A    between atoms: _115  and  _118
REMARK   44  A    between atoms: _118  and  _119
REMARK   45  A    between atoms: _122  and  _124
REMARK   46  A    between atoms: _124  and  _125
REMARK   47  A    between atoms: _124  and  _127
REMARK   48  A    between atoms: _127  and  _128
REMARK   49  A    between atoms: _131  and  _133
REMARK   50  A    between atoms: _133  and  _134
REMARK   51  A    between atoms: _136  and  _138
REMARK   52  A    between atoms: _138  and  _139
REMARK   53  A    between atoms: _138  and  _141
REMARK   54  A    between atoms: _141  and  _142
REMARK   55  A    between atoms: _144  and  _146
REMARK   56  A    between atoms: _146  and  _147
REMARK   57  A    between atoms: _146  and  _149
REMARK   58  A    between atoms: _149  and  _150
REMARK   59  A    between atoms: _150  and  _151
REMARK   60  A    between atoms: _153  and  _155
REMARK   61  A    between atoms: _155  and  _156
REMARK   62  A    between atoms: _155  and  _158
REMARK   63  A    between atoms: _158  and  _159
REMARK   64  A    between atoms: _159  and  _160
REMARK   65  A    between atoms: _163  and  _165
REMARK   66  A    between atoms: _165  and  _166
REMARK   67  A    between atoms: _165  and  _168
REMARK   68  A    between atoms: _168  and  _169
REMARK   69  A    between atoms: _174  and  _175
REMARK   70  A    between atoms: _177  and  _179
REMARK   71  A    between atoms: _179  and  _180
REMARK   72  A    between atoms: _179  and  _182
REMARK   73  A    between atoms: _185  and  _187
REMARK   74  A    between atoms: _187  and  _188
REMARK   75  A    between atoms: _187  and  _190
REMARK   76  A    between atoms: _190  and  _191
REMARK   77  A    between atoms: _194  and  _196
REMARK   78  A    between atoms: _196  and  _197
REMARK   79  A    between atoms: _196  and  _199
REMARK   80  A    between atoms: _199  and  _200
REMARK   81  A    between atoms: _200  and  _201
REMARK   82  A    between atoms: _201  and  _202
REMARK   83  A    between atoms: _202  and  _203
REMARK   84  A    between atoms: _207  and  _209
REMARK   85  A    between atoms: _209  and  _210
REMARK   86  A    between atoms: _209  and  _212
REMARK   87  A    between atoms: _212  and  _213
REMARK   88  A    between atoms: _216  and  _218
REMARK   89  A    between atoms: _218  and  _219
REMARK   90  A    between atoms: _218  and  _221
REMARK   91  A    between atoms: _221  and  _222
REMARK   92  A    between atoms: _222  and  _223
REMARK   93  A    between atoms: _225  and  _227
REMARK   94  A    between atoms: _227  and  _228
REMARK   95  A    between atoms: _227  and  _230
REMARK   96  A    between atoms: _230  and  _231
REMARK   97  A    between atoms: _241  and  _243
REMARK   98  A    between atoms: _243  and  _244
REMARK   99  A    between atoms: _243  and  _246
REMARK  100  A    between atoms: _246  and  _247
REMARK  101  A    between atoms: _250  and  _252
REMARK  102  A    between atoms: _252  and  _253
REMARK  103  A    between atoms: _252  and  _255
REMARK  104  A    between atoms: _255  and  _256
REMARK  105  A    between atoms: _262  and  _264
REMARK  106  A    between atoms: _264  and  _265
REMARK  107  A    between atoms: _264  and  _267
REMARK  108  A    between atoms: _267  and  _268
REMARK  109  A    between atoms: _271  and  _273
REMARK  110  A    between atoms: _273  and  _274
REMARK  111  A    between atoms: _276  and  _278
REMARK  112  A    between atoms: _278  and  _279
REMARK  113  A    between atoms: _278  and  _281
REMARK  114  A    between atoms: _281  and  _282
REMARK  115  A    between atoms: _285  and  _287
REMARK  116  A    between atoms: _287  and  _288
REMARK  117  A    between atoms: _287  and  _290
REMARK  118  A    between atoms: _290  and  _291
REMARK  119  A    between atoms: _294  and  _296
REMARK  120  A    between atoms: _296  and  _297
REMARK  121  A    between atoms: _296  and  _299
REMARK  122  A    between atoms: _299  and  _300
REMARK  123  A    between atoms: _303  and  _305
REMARK  124  A    between atoms: _305  and  _306
REMARK  125  A    between atoms: _305  and  _308
REMARK  126  A    between atoms: _308  and  _309
REMARK  127  A    between atoms: _319  and  _321
REMARK  128  A    between atoms: _321  and  _322
REMARK  129  A    between atoms: _321  and  _324
REMARK  130  A    between atoms: _324  and  _325
REMARK  131  A    between atoms: _325  and  _326
REMARK  132  A    between atoms: _329  and  _331
REMARK  133  A    between atoms: _331  and  _332
REMARK  134  A    between atoms: _331  and  _334
REMARK  135  A    between atoms: _334  and  _335
REMARK  136  A    between atoms: _335  and  _336
REMARK  137  A    between atoms: _336  and  _337
REMARK  138  A    between atoms: _346  and  _348
REMARK  139  A    between atoms: _348  and  _349
REMARK  140  A    between atoms: _348  and  _351
REMARK  141  A    between atoms: _351  and  _352
REMARK  142  A    between atoms: _357  and  _358
REMARK  143  A    between atoms: _360  and  _362
REMARK  144  A    between atoms: _362  and  _363
REMARK  145  A    between atoms: _362  and  _365
REMARK  146  A    between atoms: _365  and  _366
REMARK  147  A    between atoms: _366  and  _367
REMARK  148  A    between atoms: _372  and  _374
REMARK  149  A    between atoms: _374  and  _375
REMARK  150  A    between atoms: _374  and  _377
REMARK  151  A    between atoms: _377  and  _378
REMARK  152  A    between atoms: _384  and  _386
REMARK  153  A    between atoms: _386  and  _387
REMARK  154  A    between atoms: _386  and  _389
REMARK  155  A    between atoms: _389  and  _390
REMARK  156  A    between atoms: _390  and  _391
REMARK  157  A    between atoms: _391  and  _392
REMARK  158  A    between atoms: _392  and  _393
REMARK  159  A    between atoms: _397  and  _399
REMARK  160  A    between atoms: _399  and  _400
REMARK  161  A    between atoms: _402  and  _404
REMARK  162  A    between atoms: _404  and  _405
REMARK  163  A    between atoms: _404  and  _407
REMARK  164  A    between atoms: _407  and  _408
REMARK  165  A    between atoms: _414  and  _415
REMARK  166  A    between atoms: _420  and  _422
REMARK  167  A    between atoms: _422  and  _423
REMARK  168  A    between atoms: _422  and  _425
REMARK  169  A    between atoms: _425  and  _426
REMARK  170  A    between atoms: _426  and  _427
REMARK  171  A    between atoms: _427  and  _428
REMARK  172  A    between atoms: _437  and  _439
REMARK  173  A    between atoms: _439  and  _440
REMARK  174  A    between atoms: _442  and  _444
REMARK  175  A    between atoms: _444  and  _445
REMARK  176  A    between atoms: _444  and  _447
REMARK  177  A    between atoms: _447  and  _448
REMARK  178  A    between atoms: _453  and  _455
REMARK  179  A    between atoms: _455  and  _456
REMARK  180  A    between atoms: _455  and  _458
REMARK  181  A    between atoms: _458  and  _459
REMARK  182  A    between atoms: _463  and  _464
REMARK  183  A    between atoms: _469  and  _471
REMARK  184  A    between atoms: _471  and  _472
REMARK  185  A    between atoms: _475  and  _477
REMARK  186  A    between atoms: _477  and  _478
REMARK  187  A    between atoms: _477  and  _480
REMARK  188  A    between atoms: _480  and  _481
REMARK  189  A    between atoms: _486  and  _488
REMARK  190  A    between atoms: _488  and  _489
REMARK  191  A    between atoms: _488  and  _491
REMARK  192  A    between atoms: _491  and  _492
REMARK  193  A    between atoms: _495  and  _497
REMARK  194  A    between atoms: _497  and  _498
REMARK  195  A    between atoms: _497  and  _500
REMARK  196  A    between atoms: _500  and  _501
REMARK  197  A    between atoms: _503  and  _505
REMARK  198  A    between atoms: _505  and  _506
REMARK  199  A    between atoms: _505  and  _508
REMARK  200  A    between atoms: _508  and  _509
REMARK  201  A    between atoms: _515  and  _517
REMARK  202  A    between atoms: _517  and  _518
REMARK  203  A    between atoms: _517  and  _520
REMARK  204  A    between atoms: _520  and  _521
REMARK  205  A    between atoms: _521  and  _522
REMARK  206  A    between atoms: _525  and  _527
REMARK  207  A    between atoms: _527  and  _528
REMARK  208  A    between atoms: _527  and  _530
REMARK  209  A    between atoms: _533  and  _535
REMARK  210  A    between atoms: _535  and  _536
REMARK  211  A    between atoms: _535  and  _538
REMARK  212  A    between atoms: _538  and  _539
REMARK  213  A    between atoms: _542  and  _544
REMARK  214  A    between atoms: _544  and  _545
REMARK  215  A    between atoms: _544  and  _547
REMARK  216  A    between atoms: _550  and  _552
REMARK  217  A    between atoms: _552  and  _553
REMARK  218  A    between atoms: _556  and  _558
REMARK  219  A    between atoms: _558  and  _559
REMARK  220  A    between atoms: _558  and  _561
REMARK  221  A    between atoms: _561  and  _562
REMARK  222  A    between atoms: _564  and  _566
REMARK  223  A    between atoms: _566  and  _567
REMARK  224  A    between atoms: _566  and  _569
REMARK  225  A    between atoms: _569  and  _570
REMARK  226  A    between atoms: _572  and  _574
REMARK  227  A    between atoms: _574  and  _575
REMARK  228  A    between atoms: _574  and  _577
REMARK  229  A    between atoms: _577  and  _578
REMARK  230  A    between atoms: _581  and  _583
REMARK  231  A    between atoms: _583  and  _584
REMARK  232  A    between atoms: _583  and  _586
REMARK  233  A    between atoms: _586  and  _587
REMARK  234  A    between atoms: _592  and  _593
REMARK  235  A    between atoms: _595  and  _597
REMARK  236  A    between atoms: _597  and  _598
REMARK  237  A    between atoms: _597  and  _600
REMARK  238  A    between atoms: _600  and  _601
REMARK  239  A    between atoms: _607  and  _609
REMARK  240  A    between atoms: _609  and  _610
REMARK  241  A    between atoms: _609  and  _612
REMARK  242  A    between atoms: _612  and  _613
REMARK  243  A    between atoms: _615  and  _617
REMARK  244  A    between atoms: _617  and  _618
REMARK  245  A    between atoms: _617  and  _620
REMARK  246  A    between atoms: _620  and  _621
REMARK  247  A    between atoms: _624  and  _626
REMARK  248  A    between atoms: _626  and  _627
REMARK  249  A    between atoms: _626  and  _629
REMARK  250  A    between atoms: _629  and  _630
REMARK  251  A    between atoms: _635  and  _636
REMARK                            x       y       z     vdW  Elec       q    Type
REMARK                         _______ _______ _______ _____ _____    ______ ____
ROOT
ATOM      1  O   HOH     1       2.902  -0.724   6.543  0.00  0.00    +0.000 OA
ENDROOT
TORSDOF 0
REMARK  Name = ../refined-set-2016/2ihj/2ihj_pocket.pdb
REMARK  251 active torsions:
REMARK  status: ('A' for Active; 'I' for Inactive)
REMARK    1  A    between atoms: _1  and  _3
REMARK    2  A    between atoms: _3  and  _4
REMARK    3  A    between atoms: _3  and  _6
REMARK    4  A    between atoms: _6  and  _7
REMARK    5  A    between atoms: _11  and  _12
REMARK    6  A    between atoms: _17  and  _19
REMARK    7  A    between atoms: _19  and  _20
REMARK    8  A    between atoms: _23  and  _25
REMARK    9  A    between atoms: _25  and  _26
REMARK   10  A    between atoms: _25  and  _28
REMARK   11  A    between atoms: _28  and  _29
REMARK   12  A    between atoms: _31  and  _33
REMARK   13  A    between atoms: _33  and  _34
REMARK   14  A    between atoms: _33  and  _36
REMARK   15  A    between atoms: _36  and  _37
REMARK   16  A    between atoms: _41  and  _42
REMARK   17  A    between atoms: _47  and  _49
REMARK   18  A    between atoms: _49  and  _50
REMARK   19  A    between atoms: _49  and  _52
REMARK   20  A    between atoms: _52  and  _53
REMARK   21  A    between atoms: _56  and  _58
REMARK   22  A    between atoms: _58  and  _59
REMARK   23  A    between atoms: _58  and  _61
REMARK   24  A    between atoms: _61  and  _62
REMARK   25  A    between atoms: _62  and  _63
REMARK   26  A    between atoms: _63  and  _64
REMARK   27  A    between atoms: _73  and  _75
REMARK   28  A    between atoms: _75  and  _76
REMARK   29  A    between atoms: _75  and  _78
REMARK   30  A    between atoms: _78  and  _79
REMARK   31  A    between atoms: _85  and  _87
REMARK   32  A    between atoms: _87  and  _88
REMARK   33  A    between atoms: _87  and  _90
REMARK   34  A    between atoms: _90  and  _91
REMARK   35  A    between atoms: _96  and  _98
REMARK   36  A    between atoms: _98  and  _99
REMARK   37  A    between atoms: _102  and  _104
REMARK   38  A    between atoms: _104  and  _105
REMARK   39  A    between atoms: _104  and  _107
REMARK   40  A    between atoms: _107  and  _108
REMARK   41  A    between atoms: _113  and  _115
REMARK   42  A    between atoms: _115  and  _116
REMARK   43  A    between atoms: _115  and  _118
REMARK   44  A    between atoms: _118  and  _119
REMARK   45  A    between atoms: _122  and  _124
REMARK   46  A    between atoms: _124  and  _125
REMARK   47  A    between atoms: _124  and  _127
REMARK   48  A    between atoms: _127  and  _128
REMARK   49  A    between atoms: _131  and  _133
REMARK   50  A    between atoms: _133  and  _134
REMARK   51  A    between atoms: _136  and  _138
REMARK   52  A    between atoms: _138  and  _139
REMARK   53  A    between atoms: _138  and  _141
REMARK   54  A    between atoms: _141  and  _142
REMARK   55  A    between atoms: _144  and  _146
REMARK   56  A    between atoms: _146  and  _147
REMARK   57  A    between atoms: _146  and  _149
REMARK   58  A    between atoms: _149  and  _150
REMARK   59  A    between atoms: _150  and  _151
REMARK   60  A    between atoms: _153  and  _155
REMARK   61  A    between atoms: _155  and  _156
REMARK   62  A    between atoms: _155  and  _158
REMARK   63  A    between atoms: _158  and  _159
REMARK   64  A    between atoms: _159  and  _160
REMARK   65  A    between atoms: _163  and  _165
REMARK   66  A    between atoms: _165  and  _166
REMARK   67  A    between atoms: _165  and  _168
REMARK   68  A    between atoms: _168  and  _169
REMARK   69  A    between atoms: _174  and  _175
REMARK   70  A    between atoms: _177  and  _179
REMARK   71  A    between atoms: _179  and  _180
REMARK   72  A    between atoms: _179  and  _182
REMARK   73  A    between atoms: _185  and  _187
REMARK   74  A    between atoms: _187  and  _188
REMARK   75  A    between atoms: _187  and  _190
REMARK   76  A    between atoms: _190  and  _191
REMARK   77  A    between atoms: _194  and  _196
REMARK   78  A    between atoms: _196  and  _197
REMARK   79  A    between atoms: _196  and  _199
REMARK   80  A    between atoms: _199  and  _200
REMARK   81  A    between atoms: _200  and  _201
REMARK   82  A    between atoms: _201  and  _202
REMARK   83  A    between atoms: _202  and  _203
REMARK   84  A    between atoms: _207  and  _209
REMARK   85  A    between atoms: _209  and  _210
REMARK   86  A    between atoms: _209  and  _212
REMARK   87  A    between atoms: _212  and  _213
REMARK   88  A    between atoms: _216  and  _218
REMARK   89  A    between atoms: _218  and  _219
REMARK   90  A    between atoms: _218  and  _221
REMARK   91  A    between atoms: _221  and  _222
REMARK   92  A    between atoms: _222  and  _223
REMARK   93  A    between atoms: _225  and  _227
REMARK   94  A    between atoms: _227  and  _228
REMARK   95  A    between atoms: _227  and  _230
REMARK   96  A    between atoms: _230  and  _231
REMARK   97  A    between atoms: _241  and  _243
REMARK   98  A    between atoms: _243  and  _244
REMARK   99  A    between atoms: _243  and  _246
REMARK  100  A    between atoms: _246  and  _247
REMARK  101  A    between atoms: _250  and  _252
REMARK  102  A    between atoms: _252  and  _253
REMARK  103  A    between atoms: _252  and  _255
REMARK  104  A    between atoms: _255  and  _256
REMARK  105  A    between atoms: _262  and  _264
REMARK  106  A    between atoms: _264  and  _265
REMARK  107  A    between atoms: _264  and  _267
REMARK  108  A    between atoms: _267  and  _268
REMARK  109  A    between atoms: _271  and  _273
REMARK  110  A    between atoms: _273  and  _274
REMARK  111  A    between atoms: _276  and  _278
REMARK  112  A    between atoms: _278  and  _279
REMARK  113  A    between atoms: _278  and  _281
REMARK  114  A    between atoms: _281  and  _282
REMARK  115  A    between atoms: _285  and  _287
REMARK  116  A    between atoms: _287  and  _288
REMARK  117  A    between atoms: _287  and  _290
REMARK  118  A    between atoms: _290  and  _291
REMARK  119  A    between atoms: _294  and  _296
REMARK  120  A    between atoms: _296  and  _297
REMARK  121  A    between atoms: _296  and  _299
REMARK  122  A    between atoms: _299  and  _300
REMARK  123  A    between atoms: _303  and  _305
REMARK  124  A    between atoms: _305  and  _306
REMARK  125  A    between atoms: _305  and  _308
REMARK  126  A    between atoms: _308  and  _309
REMARK  127  A    between atoms: _319  and  _321
REMARK  128  A    between atoms: _321  and  _322
REMARK  129  A    between atoms: _321  and  _324
REMARK  130  A    between atoms: _324  and  _325
REMARK  131  A    between atoms: _325  and  _326
REMARK  132  A    between atoms: _329  and  _331
REMARK  133  A    between atoms: _331  and  _332
REMARK  134  A    between atoms: _331  and  _334
REMARK  135  A    between atoms: _334  and  _335
REMARK  136  A    between atoms: _335  and  _336
REMARK  137  A    between atoms: _336  and  _337
REMARK  138  A    between atoms: _346  and  _348
REMARK  139  A    between atoms: _348  and  _349
REMARK  140  A    between atoms: _348  and  _351
REMARK  141  A    between atoms: _351  and  _352
REMARK  142  A    between atoms: _357  and  _358
REMARK  143  A    between atoms: _360  and  _362
REMARK  144  A    between atoms: _362  and  _363
REMARK  145  A    between atoms: _362  and  _365
REMARK  146  A    between atoms: _365  and  _366
REMARK  147  A    between atoms: _366  and  _367
REMARK  148  A    between atoms: _372  and  _374
REMARK  149  A    between atoms: _374  and  _375
REMARK  150  A    between atoms: _374  and  _377
REMARK  151  A    between atoms: _377  and  _378
REMARK  152  A    between atoms: _384  and  _386
REMARK  153  A    between atoms: _386  and  _387
REMARK  154  A    between atoms: _386  and  _389
REMARK  155  A    between atoms: _389  and  _390
REMARK  156  A    between atoms: _390  and  _391
REMARK  157  A    between atoms: _391  and  _392
REMARK  158  A    between atoms: _392  and  _393
REMARK  159  A    between atoms: _397  and  _399
REMARK  160  A    between atoms: _399  and  _400
REMARK  161  A    between atoms: _402  and  _404
REMARK  162  A    between atoms: _404  and  _405
REMARK  163  A    between atoms: _404  and  _407
REMARK  164  A    between atoms: _407  and  _408
REMARK  165  A    between atoms: _414  and  _415
REMARK  166  A    between atoms: _420  and  _422
REMARK  167  A    between atoms: _422  and  _423
REMARK  168  A    between atoms: _422  and  _425
REMARK  169  A    between atoms: _425  and  _426
REMARK  170  A    between atoms: _426  and  _427
REMARK  171  A    between atoms: _427  and  _428
REMARK  172  A    between atoms: _437  and  _439
REMARK  173  A    between atoms: _439  and  _440
REMARK  174  A    between atoms: _442  and  _444
REMARK  175  A    between atoms: _444  and  _445
REMARK  176  A    between atoms: _444  and  _447
REMARK  177  A    between atoms: _447  and  _448
REMARK  178  A    between atoms: _453  and  _455
REMARK  179  A    between atoms: _455  and  _456
REMARK  180  A    between atoms: _455  and  _458
REMARK  181  A    between atoms: _458  and  _459
REMARK  182  A    between atoms: _463  and  _464
REMARK  183  A    between atoms: _469  and  _471
REMARK  184  A    between atoms: _471  and  _472
REMARK  185  A    between atoms: _475  and  _477
REMARK  186  A    between atoms: _477  and  _478
REMARK  187  A    between atoms: _477  and  _480
REMARK  188  A    between atoms: _480  and  _481
REMARK  189  A    between atoms: _486  and  _488
REMARK  190  A    between atoms: _488  and  _489
REMARK  191  A    between atoms: _488  and  _491
REMARK  192  A    between atoms: _491  and  _492
REMARK  193  A    between atoms: _495  and  _497
REMARK  194  A    between atoms: _497  and  _498
REMARK  195  A    between atoms: _497  and  _500
REMARK  196  A    between atoms: _500  and  _501
REMARK  197  A    between atoms: _503  and  _505
REMARK  198  A    between atoms: _505  and  _506
REMARK  199  A    between atoms: _505  and  _508
REMARK  200  A    between atoms: _508  and  _509
REMARK  201  A    between atoms: _515  and  _517
REMARK  202  A    between atoms: _517  and  _518
REMARK  203  A    between atoms: _517  and  _520
REMARK  204  A    between atoms: _520  and  _521
REMARK  205  A    between atoms: _521  and  _522
REMARK  206  A    between atoms: _525  and  _527
REMARK  207  A    between atoms: _527  and  _528
REMARK  208  A    between atoms: _527  and  _530
REMARK  209  A    between atoms: _533  and  _535
REMARK  210  A    between atoms: _535  and  _536
REMARK  211  A    between atoms: _535  and  _538
REMARK  212  A    between atoms: _538  and  _539
REMARK  213  A    between atoms: _542  and  _544
REMARK  214  A    between atoms: _544  and  _545
REMARK  215  A    between atoms: _544  and  _547
REMARK  216  A    between atoms: _550  and  _552
REMARK  217  A    between atoms: _552  and  _553
REMARK  218  A    between atoms: _556  and  _558
REMARK  219  A    between atoms: _558  and  _559
REMARK  220  A    between atoms: _558  and  _561
REMARK  221  A    between atoms: _561  and  _562
REMARK  222  A    between atoms: _564  and  _566
REMARK  223  A    between atoms: _566  and  _567
REMARK  224  A    between atoms: _566  and  _569
REMARK  225  A    between atoms: _569  and  _570
REMARK  226  A    between atoms: _572  and  _574
REMARK  227  A    between atoms: _574  and  _575
REMARK  228  A    between atoms: _574  and  _577
REMARK  229  A    between atoms: _577  and  _578
REMARK  230  A    between atoms: _581  and  _583
REMARK  231  A    between atoms: _583  and  _584
REMARK  232  A    between atoms: _583  and  _586
REMARK  233  A    between atoms: _586  and  _587
REMARK  234  A    between atoms: _592  and  _593
REMARK  235  A    between atoms: _595  and  _597
REMARK  236  A    between atoms: _597  and  _598
REMARK  237  A    between atoms: _597  and  _600
REMARK  238  A    between atoms: _600  and  _601
REMARK  239  A    between atoms: _607  and  _609
REMARK  240  A    between atoms: _609  and  _610
REMARK  241  A    between atoms: _609  and  _612
REMARK  242  A    between atoms: _612  and  _613
REMARK  243  A    between atoms: _615  and  _617
REMARK  244  A    between atoms: _617  and  _618
REMARK  245  A    between atoms: _617  and  _620
REMARK  246  A    between atoms: _620  and  _621
REMARK  247  A    between atoms: _624  and  _626
REMARK  248  A    between atoms: _626  and  _627
REMARK  249  A    between atoms: _626  and  _629
REMARK  250  A    between atoms: _629  and  _630
REMARK  251  A    between atoms: _635  and  _636
REMARK                            x       y       z     vdW  Elec       q    Type
REMARK                         _______ _______ _______ _____ _____    ______ ____
ROOT
ATOM      1  O   HOH     1       3.706   7.671   5.913  0.00  0.00    +0.000 OA
ENDROOT
TORSDOF 0
REMARK  Name = ../refined-set-2016/2ihj/2ihj_pocket.pdb
REMARK  251 active torsions:
REMARK  status: ('A' for Active; 'I' for Inactive)
REMARK    1  A    between atoms: _1  and  _3
REMARK    2  A    between atoms: _3  and  _4
REMARK    3  A    between atoms: _3  and  _6
REMARK    4  A    between atoms: _6  and  _7
REMARK    5  A    between atoms: _11  and  _12
REMARK    6  A    between atoms: _17  and  _19
REMARK    7  A    between atoms: _19  and  _20
REMARK    8  A    between atoms: _23  and  _25
REMARK    9  A    between atoms: _25  and  _26
REMARK   10  A    between atoms: _25  and  _28
REMARK   11  A    between atoms: _28  and  _29
REMARK   12  A    between atoms: _31  and  _33
REMARK   13  A    between atoms: _33  and  _34
REMARK   14  A    between atoms: _33  and  _36
REMARK   15  A    between atoms: _36  and  _37
REMARK   16  A    between atoms: _41  and  _42
REMARK   17  A    between atoms: _47  and  _49
REMARK   18  A    between atoms: _49  and  _50
REMARK   19  A    between atoms: _49  and  _52
REMARK   20  A    between atoms: _52  and  _53
REMARK   21  A    between atoms: _56  and  _58
REMARK   22  A    between atoms: _58  and  _59
REMARK   23  A    between atoms: _58  and  _61
REMARK   24  A    between atoms: _61  and  _62
REMARK   25  A    between atoms: _62  and  _63
REMARK   26  A    between atoms: _63  and  _64
REMARK   27  A    between atoms: _73  and  _75
REMARK   28  A    between atoms: _75  and  _76
REMARK   29  A    between atoms: _75  and  _78
REMARK   30  A    between atoms: _78  and  _79
REMARK   31  A    between atoms: _85  and  _87
REMARK   32  A    between atoms: _87  and  _88
REMARK   33  A    between atoms: _87  and  _90
REMARK   34  A    between atoms: _90  and  _91
REMARK   35  A    between atoms: _96  and  _98
REMARK   36  A    between atoms: _98  and  _99
REMARK   37  A    between atoms: _102  and  _104
REMARK   38  A    between atoms: _104  and  _105
REMARK   39  A    between atoms: _104  and  _107
REMARK   40  A    between atoms: _107  and  _108
REMARK   41  A    between atoms: _113  and  _115
REMARK   42  A    between atoms: _115  and  _116
REMARK   43  A    between atoms: _115  and  _118
REMARK   44  A    between atoms: _118  and  _119
REMARK   45  A    between atoms: _122  and  _124
REMARK   46  A    between atoms: _124  and  _125
REMARK   47  A    between atoms: _124  and  _127
REMARK   48  A    between atoms: _127  and  _128
REMARK   49  A    between atoms: _131  and  _133
REMARK   50  A    between atoms: _133  and  _134
REMARK   51  A    between atoms: _136  and  _138
REMARK   52  A    between atoms: _138  and  _139
REMARK   53  A    between atoms: _138  and  _141
REMARK   54  A    between atoms: _141  and  _142
REMARK   55  A    between atoms: _144  and  _146
REMARK   56  A    between atoms: _146  and  _147
REMARK   57  A    between atoms: _146  and  _149
REMARK   58  A    between atoms: _149  and  _150
REMARK   59  A    between atoms: _150  and  _151
REMARK   60  A    between atoms: _153  and  _155
REMARK   61  A    between atoms: _155  and  _156
REMARK   62  A    between atoms: _155  and  _158
REMARK   63  A    between atoms: _158  and  _159
REMARK   64  A    between atoms: _159  and  _160
REMARK   65  A    between atoms: _163  and  _165
REMARK   66  A    between atoms: _165  and  _166
REMARK   67  A    between atoms: _165  and  _168
REMARK   68  A    between atoms: _168  and  _169
REMARK   69  A    between atoms: _174  and  _175
REMARK   70  A    between atoms: _177  and  _179
REMARK   71  A    between atoms: _179  and  _180
REMARK   72  A    between atoms: _179  and  _182
REMARK   73  A    between atoms: _185  and  _187
REMARK   74  A    between atoms: _187  and  _188
REMARK   75  A    between atoms: _187  and  _190
REMARK   76  A    between atoms: _190  and  _191
REMARK   77  A    between atoms: _194  and  _196
REMARK   78  A    between atoms: _196  and  _197
REMARK   79  A    between atoms: _196  and  _199
REMARK   80  A    between atoms: _199  and  _200
REMARK   81  A    between atoms: _200  and  _201
REMARK   82  A    between atoms: _201  and  _202
REMARK   83  A    between atoms: _202  and  _203
REMARK   84  A    between atoms: _207  and  _209
REMARK   85  A    between atoms: _209  and  _210
REMARK   86  A    between atoms: _209  and  _212
REMARK   87  A    between atoms: _212  and  _213
REMARK   88  A    between atoms: _216  and  _218
REMARK   89  A    between atoms: _218  and  _219
REMARK   90  A    between atoms: _218  and  _221
REMARK   91  A    between atoms: _221  and  _222
REMARK   92  A    between atoms: _222  and  _223
REMARK   93  A    between atoms: _225  and  _227
REMARK   94  A    between atoms: _227  and  _228
REMARK   95  A    between atoms: _227  and  _230
REMARK   96  A    between atoms: _230  and  _231
REMARK   97  A    between atoms: _241  and  _243
REMARK   98  A    between atoms: _243  and  _244
REMARK   99  A    between atoms: _243  and  _246
REMARK  100  A    between atoms: _246  and  _247
REMARK  101  A    between atoms: _250  and  _252
REMARK  102  A    between atoms: _252  and  _253
REMARK  103  A    between atoms: _252  and  _255
REMARK  104  A    between atoms: _255  and  _256
REMARK  105  A    between atoms: _262  and  _264
REMARK  106  A    between atoms: _264  and  _265
REMARK  107  A    between atoms: _264  and  _267
REMARK  108  A    between atoms: _267  and  _268
REMARK  109  A    between atoms: _271  and  _273
REMARK  110  A    between atoms: _273  and  _274
REMARK  111  A    between atoms: _276  and  _278
REMARK  112  A    between atoms: _278  and  _279
REMARK  113  A    between atoms: _278  and  _281
REMARK  114  A    between atoms: _281  and  _282
REMARK  115  A    between atoms: _285  and  _287
REMARK  116  A    between atoms: _287  and  _288
REMARK  117  A    between atoms: _287  and  _290
REMARK  118  A    between atoms: _290  and  _291
REMARK  119  A    between atoms: _294  and  _296
REMARK  120  A    between atoms: _296  and  _297
REMARK  121  A    between atoms: _296  and  _299
REMARK  122  A    between atoms: _299  and  _300
REMARK  123  A    between atoms: _303  and  _305
REMARK  124  A    between atoms: _305  and  _306
REMARK  125  A    between atoms: _305  and  _308
REMARK  126  A    between atoms: _308  and  _309
REMARK  127  A    between atoms: _319  and  _321
REMARK  128  A    between atoms: _321  and  _322
REMARK  129  A    between atoms: _321  and  _324
REMARK  130  A    between atoms: _324  and  _325
REMARK  131  A    between atoms: _325  and  _326
REMARK  132  A    between atoms: _329  and  _331
REMARK  133  A    between atoms: _331  and  _332
REMARK  134  A    between atoms: _331  and  _334
REMARK  135  A    between atoms: _334  and  _335
REMARK  136  A    between atoms: _335  and  _336
REMARK  137  A    between atoms: _336  and  _337
REMARK  138  A    between atoms: _346  and  _348
REMARK  139  A    between atoms: _348  and  _349
REMARK  140  A    between atoms: _348  and  _351
REMARK  141  A    between atoms: _351  and  _352
REMARK  142  A    between atoms: _357  and  _358
REMARK  143  A    between atoms: _360  and  _362
REMARK  144  A    between atoms: _362  and  _363
REMARK  145  A    between atoms: _362  and  _365
REMARK  146  A    between atoms: _365  and  _366
REMARK  147  A    between atoms: _366  and  _367
REMARK  148  A    between atoms: _372  and  _374
REMARK  149  A    between atoms: _374  and  _375
REMARK  150  A    between atoms: _374  and  _377
REMARK  151  A    between atoms: _377  and  _378
REMARK  152  A    between atoms: _384  and  _386
REMARK  153  A    between atoms: _386  and  _387
REMARK  154  A    between atoms: _386  and  _389
REMARK  155  A    between atoms: _389  and  _390
REMARK  156  A    between atoms: _390  and  _391
REMARK  157  A    between atoms: _391  and  _392
REMARK  158  A    between atoms: _392  and  _393
REMARK  159  A    between atoms: _397  and  _399
REMARK  160  A    between atoms: _399  and  _400
REMARK  161  A    between atoms: _402  and  _404
REMARK  162  A    between atoms: _404  and  _405
REMARK  163  A    between atoms: _404  and  _407
REMARK  164  A    between atoms: _407  and  _408
REMARK  165  A    between atoms: _414  and  _415
REMARK  166  A    between atoms: _420  and  _422
REMARK  167  A    between atoms: _422  and  _423
REMARK  168  A    between atoms: _422  and  _425
REMARK  169  A    between atoms: _425  and  _426
REMARK  170  A    between atoms: _426  and  _427
REMARK  171  A    between atoms: _427  and  _428
REMARK  172  A    between atoms: _437  and  _439
REMARK  173  A    between atoms: _439  and  _440
REMARK  174  A    between atoms: _442  and  _444
REMARK  175  A    between atoms: _444  and  _445
REMARK  176  A    between atoms: _444  and  _447
REMARK  177  A    between atoms: _447  and  _448
REMARK  178  A    between atoms: _453  and  _455
REMARK  179  A    between atoms: _455  and  _456
REMARK  180  A    between atoms: _455  and  _458
REMARK  181  A    between atoms: _458  and  _459
REMARK  182  A    between atoms: _463  and  _464
REMARK  183  A    between atoms: _469  and  _471
REMARK  184  A    between atoms: _471  and  _472
REMARK  185  A    between atoms: _475  and  _477
REMARK  186  A    between atoms: _477  and  _478
REMARK  187  A    between atoms: _477  and  _480
REMARK  188  A    between atoms: _480  and  _481
REMARK  189  A    between atoms: _486  and  _488
REMARK  190  A    between atoms: _488  and  _489
REMARK  191  A    between atoms: _488  and  _491
REMARK  192  A    between atoms: _491  and  _492
REMARK  193  A    between atoms: _495  and  _497
REMARK  194  A    between atoms: _497  and  _498
REMARK  195  A    between atoms: _497  and  _500
REMARK  196  A    between atoms: _500  and  _501
REMARK  197  A    between atoms: _503  and  _505
REMARK  198  A    between atoms: _505  and  _506
REMARK  199  A    between atoms: _505  and  _508
REMARK  200  A    between atoms: _508  and  _509
REMARK  201  A    between atoms: _515  and  _517
REMARK  202  A    between atoms: _517  and  _518
REMARK  203  A    between atoms: _517  and  _520
REMARK  204  A    between atoms: _520  and  _521
REMARK  205  A    between atoms: _521  and  _522
REMARK  206  A    between atoms: _525  and  _527
REMARK  207  A    between atoms: _527  and  _528
REMARK  208  A    between atoms: _527  and  _530
REMARK  209  A    between atoms: _533  and  _535
REMARK  210  A    between atoms: _535  and  _536
REMARK  211  A    between atoms: _535  and  _538
REMARK  212  A    between atoms: _538  and  _539
REMARK  213  A    between atoms: _542  and  _544
REMARK  214  A    between atoms: _544  and  _545
REMARK  215  A    between atoms: _544  and  _547
REMARK  216  A    between atoms: _550  and  _552
REMARK  217  A    between atoms: _552  and  _553
REMARK  218  A    between atoms: _556  and  _558
REMARK  219  A    between atoms: _558  and  _559
REMARK  220  A    between atoms: _558  and  _561
REMARK  221  A    between atoms: _561  and  _562
REMARK  222  A    between atoms: _564  and  _566
REMARK  223  A    between atoms: _566  and  _567
REMARK  224  A    between atoms: _566  and  _569
REMARK  225  A    between atoms: _569  and  _570
REMARK  226  A    between atoms: _572  and  _574
REMARK  227  A    between atoms: _574  and  _575
REMARK  228  A    between atoms: _574  and  _577
REMARK  229  A    between atoms: _577  and  _578
REMARK  230  A    between atoms: _581  and  _583
REMARK  231  A    between atoms: _583  and  _584
REMARK  232  A    between atoms: _583  and  _586
REMARK  233  A    between atoms: _586  and  _587
REMARK  234  A    between atoms: _592  and  _593
REMARK  235  A    between atoms: _595  and  _597
REMARK  236  A    between atoms: _597  and  _598
REMARK  237  A    between atoms: _597  and  _600
REMARK  238  A    between atoms: _600  and  _601
REMARK  239  A    between atoms: _607  and  _609
REMARK  240  A    between atoms: _609  and  _610
REMARK  241  A    between atoms: _609  and  _612
REMARK  242  A    between atoms: _612  and  _613
REMARK  243  A    between atoms: _615  and  _617
REMARK  244  A    between atoms: _617  and  _618
REMARK  245  A    between atoms: _617  and  _620
REMARK  246  A    between atoms: _620  and  _621
REMARK  247  A    between atoms: _624  and  _626
REMARK  248  A    between atoms: _626  and  _627
REMARK  249  A    between atoms: _626  and  _629
REMARK  250  A    between atoms: _629  and  _630
REMARK  251  A    between atoms: _635  and  _636
REMARK                            x       y       z     vdW  Elec       q    Type
REMARK                         _______ _______ _______ _____ _____    ______ ____
ROOT
ATOM      1  O   HOH     1       7.826   5.894   5.088  0.00  0.00    +0.000 OA
ENDROOT
TORSDOF 0
REMARK  Name = ../refined-set-2016/2ihj/2ihj_pocket.pdb
REMARK  251 active torsions:
REMARK  status: ('A' for Active; 'I' for Inactive)
REMARK    1  A    between atoms: _1  and  _3
REMARK    2  A    between atoms: _3  and  _4
REMARK    3  A    between atoms: _3  and  _6
REMARK    4  A    between atoms: _6  and  _7
REMARK    5  A    between atoms: _11  and  _12
REMARK    6  A    between atoms: _17  and  _19
REMARK    7  A    between atoms: _19  and  _20
REMARK    8  A    between atoms: _23  and  _25
REMARK    9  A    between atoms: _25  and  _26
REMARK   10  A    between atoms: _25  and  _28
REMARK   11  A    between atoms: _28  and  _29
REMARK   12  A    between atoms: _31  and  _33
REMARK   13  A    between atoms: _33  and  _34
REMARK   14  A    between atoms: _33  and  _36
REMARK   15  A    between atoms: _36  and  _37
REMARK   16  A    between atoms: _41  and  _42
REMARK   17  A    between atoms: _47  and  _49
REMARK   18  A    between atoms: _49  and  _50
REMARK   19  A    between atoms: _49  and  _52
REMARK   20  A    between atoms: _52  and  _53
REMARK   21  A    between atoms: _56  and  _58
REMARK   22  A    between atoms: _58  and  _59
REMARK   23  A    between atoms: _58  and  _61
REMARK   24  A    between atoms: _61  and  _62
REMARK   25  A    between atoms: _62  and  _63
REMARK   26  A    between atoms: _63  and  _64
REMARK   27  A    between atoms: _73  and  _75
REMARK   28  A    between atoms: _75  and  _76
REMARK   29  A    between atoms: _75  and  _78
REMARK   30  A    between atoms: _78  and  _79
REMARK   31  A    between atoms: _85  and  _87
REMARK   32  A    between atoms: _87  and  _88
REMARK   33  A    between atoms: _87  and  _90
REMARK   34  A    between atoms: _90  and  _91
REMARK   35  A    between atoms: _96  and  _98
REMARK   36  A    between atoms: _98  and  _99
REMARK   37  A    between atoms: _102  and  _104
REMARK   38  A    between atoms: _104  and  _105
REMARK   39  A    between atoms: _104  and  _107
REMARK   40  A    between atoms: _107  and  _108
REMARK   41  A    between atoms: _113  and  _115
REMARK   42  A    between atoms: _115  and  _116
REMARK   43  A    between atoms: _115  and  _118
REMARK   44  A    between atoms: _118  and  _119
REMARK   45  A    between atoms: _122  and  _124
REMARK   46  A    between atoms: _124  and  _125
REMARK   47  A    between atoms: _124  and  _127
REMARK   48  A    between atoms: _127  and  _128
REMARK   49  A    between atoms: _131  and  _133
REMARK   50  A    between atoms: _133  and  _134
REMARK   51  A    between atoms: _136  and  _138
REMARK   52  A    between atoms: _138  and  _139
REMARK   53  A    between atoms: _138  and  _141
REMARK   54  A    between atoms: _141  and  _142
REMARK   55  A    between atoms: _144  and  _146
REMARK   56  A    between atoms: _146  and  _147
REMARK   57  A    between atoms: _146  and  _149
REMARK   58  A    between atoms: _149  and  _150
REMARK   59  A    between atoms: _150  and  _151
REMARK   60  A    between atoms: _153  and  _155
REMARK   61  A    between atoms: _155  and  _156
REMARK   62  A    between atoms: _155  and  _158
REMARK   63  A    between atoms: _158  and  _159
REMARK   64  A    between atoms: _159  and  _160
REMARK   65  A    between atoms: _163  and  _165
REMARK   66  A    between atoms: _165  and  _166
REMARK   67  A    between atoms: _165  and  _168
REMARK   68  A    between atoms: _168  and  _169
REMARK   69  A    between atoms: _174  and  _175
REMARK   70  A    between atoms: _177  and  _179
REMARK   71  A    between atoms: _179  and  _180
REMARK   72  A    between atoms: _179  and  _182
REMARK   73  A    between atoms: _185  and  _187
REMARK   74  A    between atoms: _187  and  _188
REMARK   75  A    between atoms: _187  and  _190
REMARK   76  A    between atoms: _190  and  _191
REMARK   77  A    between atoms: _194  and  _196
REMARK   78  A    between atoms: _196  and  _197
REMARK   79  A    between atoms: _196  and  _199
REMARK   80  A    between atoms: _199  and  _200
REMARK   81  A    between atoms: _200  and  _201
REMARK   82  A    between atoms: _201  and  _202
REMARK   83  A    between atoms: _202  and  _203
REMARK   84  A    between atoms: _207  and  _209
REMARK   85  A    between atoms: _209  and  _210
REMARK   86  A    between atoms: _209  and  _212
REMARK   87  A    between atoms: _212  and  _213
REMARK   88  A    between atoms: _216  and  _218
REMARK   89  A    between atoms: _218  and  _219
REMARK   90  A    between atoms: _218  and  _221
REMARK   91  A    between atoms: _221  and  _222
REMARK   92  A    between atoms: _222  and  _223
REMARK   93  A    between atoms: _225  and  _227
REMARK   94  A    between atoms: _227  and  _228
REMARK   95  A    between atoms: _227  and  _230
REMARK   96  A    between atoms: _230  and  _231
REMARK   97  A    between atoms: _241  and  _243
REMARK   98  A    between atoms: _243  and  _244
REMARK   99  A    between atoms: _243  and  _246
REMARK  100  A    between atoms: _246  and  _247
REMARK  101  A    between atoms: _250  and  _252
REMARK  102  A    between atoms: _252  and  _253
REMARK  103  A    between atoms: _252  and  _255
REMARK  104  A    between atoms: _255  and  _256
REMARK  105  A    between atoms: _262  and  _264
REMARK  106  A    between atoms: _264  and  _265
REMARK  107  A    between atoms: _264  and  _267
REMARK  108  A    between atoms: _267  and  _268
REMARK  109  A    between atoms: _271  and  _273
REMARK  110  A    between atoms: _273  and  _274
REMARK  111  A    between atoms: _276  and  _278
REMARK  112  A    between atoms: _278  and  _279
REMARK  113  A    between atoms: _278  and  _281
REMARK  114  A    between atoms: _281  and  _282
REMARK  115  A    between atoms: _285  and  _287
REMARK  116  A    between atoms: _287  and  _288
REMARK  117  A    between atoms: _287  and  _290
REMARK  118  A    between atoms: _290  and  _291
REMARK  119  A    between atoms: _294  and  _296
REMARK  120  A    between atoms: _296  and  _297
REMARK  121  A    between atoms: _296  and  _299
REMARK  122  A    between atoms: _299  and  _300
REMARK  123  A    between atoms: _303  and  _305
REMARK  124  A    between atoms: _305  and  _306
REMARK  125  A    between atoms: _305  and  _308
REMARK  126  A    between atoms: _308  and  _309
REMARK  127  A    between atoms: _319  and  _321
REMARK  128  A    between atoms: _321  and  _322
REMARK  129  A    between atoms: _321  and  _324
REMARK  130  A    between atoms: _324  and  _325
REMARK  131  A    between atoms: _325  and  _326
REMARK  132  A    between atoms: _329  and  _331
REMARK  133  A    between atoms: _331  and  _332
REMARK  134  A    between atoms: _331  and  _334
REMARK  135  A    between atoms: _334  and  _335
REMARK  136  A    between atoms: _335  and  _336
REMARK  137  A    between atoms: _336  and  _337
REMARK  138  A    between atoms: _346  and  _348
REMARK  139  A    between atoms: _348  and  _349
REMARK  140  A    between atoms: _348  and  _351
REMARK  141  A    between atoms: _351  and  _352
REMARK  142  A    between atoms: _357  and  _358
REMARK  143  A    between atoms: _360  and  _362
REMARK  144  A    between atoms: _362  and  _363
REMARK  145  A    between atoms: _362  and  _365
REMARK  146  A    between atoms: _365  and  _366
REMARK  147  A    between atoms: _366  and  _367
REMARK  148  A    between atoms: _372  and  _374
REMARK  149  A    between atoms: _374  and  _375
REMARK  150  A    between atoms: _374  and  _377
REMARK  151  A    between atoms: _377  and  _378
REMARK  152  A    between atoms: _384  and  _386
REMARK  153  A    between atoms: _386  and  _387
REMARK  154  A    between atoms: _386  and  _389
REMARK  155  A    between atoms: _389  and  _390
REMARK  156  A    between atoms: _390  and  _391
REMARK  157  A    between atoms: _391  and  _392
REMARK  158  A    between atoms: _392  and  _393
REMARK  159  A    between atoms: _397  and  _399
REMARK  160  A    between atoms: _399  and  _400
REMARK  161  A    between atoms: _402  and  _404
REMARK  162  A    between atoms: _404  and  _405
REMARK  163  A    between atoms: _404  and  _407
REMARK  164  A    between atoms: _407  and  _408
REMARK  165  A    between atoms: _414  and  _415
REMARK  166  A    between atoms: _420  and  _422
REMARK  167  A    between atoms: _422  and  _423
REMARK  168  A    between atoms: _422  and  _425
REMARK  169  A    between atoms: _425  and  _426
REMARK  170  A    between atoms: _426  and  _427
REMARK  171  A    between atoms: _427  and  _428
REMARK  172  A    between atoms: _437  and  _439
REMARK  173  A    between atoms: _439  and  _440
REMARK  174  A    between atoms: _442  and  _444
REMARK  175  A    between atoms: _444  and  _445
REMARK  176  A    between atoms: _444  and  _447
REMARK  177  A    between atoms: _447  and  _448
REMARK  178  A    between atoms: _453  and  _455
REMARK  179  A    between atoms: _455  and  _456
REMARK  180  A    between atoms: _455  and  _458
REMARK  181  A    between atoms: _458  and  _459
REMARK  182  A    between atoms: _463  and  _464
REMARK  183  A    between atoms: _469  and  _471
REMARK  184  A    between atoms: _471  and  _472
REMARK  185  A    between atoms: _475  and  _477
REMARK  186  A    between atoms: _477  and  _478
REMARK  187  A    between atoms: _477  and  _480
REMARK  188  A    between atoms: _480  and  _481
REMARK  189  A    between atoms: _486  and  _488
REMARK  190  A    between atoms: _488  and  _489
REMARK  191  A    between atoms: _488  and  _491
REMARK  192  A    between atoms: _491  and  _492
REMARK  193  A    between atoms: _495  and  _497
REMARK  194  A    between atoms: _497  and  _498
REMARK  195  A    between atoms: _497  and  _500
REMARK  196  A    between atoms: _500  and  _501
REMARK  197  A    between atoms: _503  and  _505
REMARK  198  A    between atoms: _505  and  _506
REMARK  199  A    between atoms: _505  and  _508
REMARK  200  A    between atoms: _508  and  _509
REMARK  201  A    between atoms: _515  and  _517
REMARK  202  A    between atoms: _517  and  _518
REMARK  203  A    between atoms: _517  and  _520
REMARK  204  A    between atoms: _520  and  _521
REMARK  205  A    between atoms: _521  and  _522
REMARK  206  A    between atoms: _525  and  _527
REMARK  207  A    between atoms: _527  and  _528
REMARK  208  A    between atoms: _527  and  _530
REMARK  209  A    between atoms: _533  and  _535
REMARK  210  A    between atoms: _535  and  _536
REMARK  211  A    between atoms: _535  and  _538
REMARK  212  A    between atoms: _538  and  _539
REMARK  213  A    between atoms: _542  and  _544
REMARK  214  A    between atoms: _544  and  _545
REMARK  215  A    between atoms: _544  and  _547
REMARK  216  A    between atoms: _550  and  _552
REMARK  217  A    between atoms: _552  and  _553
REMARK  218  A    between atoms: _556  and  _558
REMARK  219  A    between atoms: _558  and  _559
REMARK  220  A    between atoms: _558  and  _561
REMARK  221  A    between atoms: _561  and  _562
REMARK  222  A    between atoms: _564  and  _566
REMARK  223  A    between atoms: _566  and  _567
REMARK  224  A    between atoms: _566  and  _569
REMARK  225  A    between atoms: _569  and  _570
REMARK  226  A    between atoms: _572  and  _574
REMARK  227  A    between atoms: _574  and  _575
REMARK  228  A    between atoms: _574  and  _577
REMARK  229  A    between atoms: _577  and  _578
REMARK  230  A    between atoms: _581  and  _583
REMARK  231  A    between atoms: _583  and  _584
REMARK  232  A    between atoms: _583  and  _586
REMARK  233  A    between atoms: _586  and  _587
REMARK  234  A    between atoms: _592  and  _593
REMARK  235  A    between atoms: _595  and  _597
REMARK  236  A    between atoms: _597  and  _598
REMARK  237  A    between atoms: _597  and  _600
REMARK  238  A    between atoms: _600  and  _601
REMARK  239  A    between atoms: _607  and  _609
REMARK  240  A    between atoms: _609  and  _610
REMARK  241  A    between atoms: _609  and  _612
REMARK  242  A    between atoms: _612  and  _613
REMARK  243  A    between atoms: _615  and  _617
REMARK  244  A    between atoms: _617  and  _618
REMARK  245  A    between atoms: _617  and  _620
REMARK  246  A    between atoms: _620  and  _621
REMARK  247  A    between atoms: _624  and  _626
REMARK  248  A    between atoms: _626  and  _627
REMARK  249  A    between atoms: _626  and  _629
REMARK  250  A    between atoms: _629  and  _630
REMARK  251  A    between atoms: _635  and  _636
REMARK                            x       y       z     vdW  Elec       q    Type
REMARK                         _______ _______ _______ _____ _____    ______ ____
ROOT
ATOM      1  O   HOH     1       6.329   4.357   3.500  0.00  0.00    +0.000 OA
ENDROOT
TORSDOF 0
REMARK  Name = ../refined-set-2016/2ihj/2ihj_pocket.pdb
REMARK  251 active torsions:
REMARK  status: ('A' for Active; 'I' for Inactive)
REMARK    1  A    between atoms: _1  and  _3
REMARK    2  A    between atoms: _3  and  _4
REMARK    3  A    between atoms: _3  and  _6
REMARK    4  A    between atoms: _6  and  _7
REMARK    5  A    between atoms: _11  and  _12
REMARK    6  A    between atoms: _17  and  _19
REMARK    7  A    between atoms: _19  and  _20
REMARK    8  A    between atoms: _23  and  _25
REMARK    9  A    between atoms: _25  and  _26
REMARK   10  A    between atoms: _25  and  _28
REMARK   11  A    between atoms: _28  and  _29
REMARK   12  A    between atoms: _31  and  _33
REMARK   13  A    between atoms: _33  and  _34
REMARK   14  A    between atoms: _33  and  _36
REMARK   15  A    between atoms: _36  and  _37
REMARK   16  A    between atoms: _41  and  _42
REMARK   17  A    between atoms: _47  and  _49
REMARK   18  A    between atoms: _49  and  _50
REMARK   19  A    between atoms: _49  and  _52
REMARK   20  A    between atoms: _52  and  _53
REMARK   21  A    between atoms: _56  and  _58
REMARK   22  A    between atoms: _58  and  _59
REMARK   23  A    between atoms: _58  and  _61
REMARK   24  A    between atoms: _61  and  _62
REMARK   25  A    between atoms: _62  and  _63
REMARK   26  A    between atoms: _63  and  _64
REMARK   27  A    between atoms: _73  and  _75
REMARK   28  A    between atoms: _75  and  _76
REMARK   29  A    between atoms: _75  and  _78
REMARK   30  A    between atoms: _78  and  _79
REMARK   31  A    between atoms: _85  and  _87
REMARK   32  A    between atoms: _87  and  _88
REMARK   33  A    between atoms: _87  and  _90
REMARK   34  A    between atoms: _90  and  _91
REMARK   35  A    between atoms: _96  and  _98
REMARK   36  A    between atoms: _98  and  _99
REMARK   37  A    between atoms: _102  and  _104
REMARK   38  A    between atoms: _104  and  _105
REMARK   39  A    between atoms: _104  and  _107
REMARK   40  A    between atoms: _107  and  _108
REMARK   41  A    between atoms: _113  and  _115
REMARK   42  A    between atoms: _115  and  _116
REMARK   43  A    between atoms: _115  and  _118
REMARK   44  A    between atoms: _118  and  _119
REMARK   45  A    between atoms: _122  and  _124
REMARK   46  A    between atoms: _124  and  _125
REMARK   47  A    between atoms: _124  and  _127
REMARK   48  A    between atoms: _127  and  _128
REMARK   49  A    between atoms: _131  and  _133
REMARK   50  A    between atoms: _133  and  _134
REMARK   51  A    between atoms: _136  and  _138
REMARK   52  A    between atoms: _138  and  _139
REMARK   53  A    between atoms: _138  and  _141
REMARK   54  A    between atoms: _141  and  _142
REMARK   55  A    between atoms: _144  and  _146
REMARK   56  A    between atoms: _146  and  _147
REMARK   57  A    between atoms: _146  and  _149
REMARK   58  A    between atoms: _149  and  _150
REMARK   59  A    between atoms: _150  and  _151
REMARK   60  A    between atoms: _153  and  _155
REMARK   61  A    between atoms: _155  and  _156
REMARK   62  A    between atoms: _155  and  _158
REMARK   63  A    between atoms: _158  and  _159
REMARK   64  A    between atoms: _159  and  _160
REMARK   65  A    between atoms: _163  and  _165
REMARK   66  A    between atoms: _165  and  _166
REMARK   67  A    between atoms: _165  and  _168
REMARK   68  A    between atoms: _168  and  _169
REMARK   69  A    between atoms: _174  and  _175
REMARK   70  A    between atoms: _177  and  _179
REMARK   71  A    between atoms: _179  and  _180
REMARK   72  A    between atoms: _179  and  _182
REMARK   73  A    between atoms: _185  and  _187
REMARK   74  A    between atoms: _187  and  _188
REMARK   75  A    between atoms: _187  and  _190
REMARK   76  A    between atoms: _190  and  _191
REMARK   77  A    between atoms: _194  and  _196
REMARK   78  A    between atoms: _196  and  _197
REMARK   79  A    between atoms: _196  and  _199
REMARK   80  A    between atoms: _199  and  _200
REMARK   81  A    between atoms: _200  and  _201
REMARK   82  A    between atoms: _201  and  _202
REMARK   83  A    between atoms: _202  and  _203
REMARK   84  A    between atoms: _207  and  _209
REMARK   85  A    between atoms: _209  and  _210
REMARK   86  A    between atoms: _209  and  _212
REMARK   87  A    between atoms: _212  and  _213
REMARK   88  A    between atoms: _216  and  _218
REMARK   89  A    between atoms: _218  and  _219
REMARK   90  A    between atoms: _218  and  _221
REMARK   91  A    between atoms: _221  and  _222
REMARK   92  A    between atoms: _222  and  _223
REMARK   93  A    between atoms: _225  and  _227
REMARK   94  A    between atoms: _227  and  _228
REMARK   95  A    between atoms: _227  and  _230
REMARK   96  A    between atoms: _230  and  _231
REMARK   97  A    between atoms: _241  and  _243
REMARK   98  A    between atoms: _243  and  _244
REMARK   99  A    between atoms: _243  and  _246
REMARK  100  A    between atoms: _246  and  _247
REMARK  101  A    between atoms: _250  and  _252
REMARK  102  A    between atoms: _252  and  _253
REMARK  103  A    between atoms: _252  and  _255
REMARK  104  A    between atoms: _255  and  _256
REMARK  105  A    between atoms: _262  and  _264
REMARK  106  A    between atoms: _264  and  _265
REMARK  107  A    between atoms: _264  and  _267
REMARK  108  A    between atoms: _267  and  _268
REMARK  109  A    between atoms: _271  and  _273
REMARK  110  A    between atoms: _273  and  _274
REMARK  111  A    between atoms: _276  and  _278
REMARK  112  A    between atoms: _278  and  _279
REMARK  113  A    between atoms: _278  and  _281
REMARK  114  A    between atoms: _281  and  _282
REMARK  115  A    between atoms: _285  and  _287
REMARK  116  A    between atoms: _287  and  _288
REMARK  117  A    between atoms: _287  and  _290
REMARK  118  A    between atoms: _290  and  _291
REMARK  119  A    between atoms: _294  and  _296
REMARK  120  A    between atoms: _296  and  _297
REMARK  121  A    between atoms: _296  and  _299
REMARK  122  A    between atoms: _299  and  _300
REMARK  123  A    between atoms: _303  and  _305
REMARK  124  A    between atoms: _305  and  _306
REMARK  125  A    between atoms: _305  and  _308
REMARK  126  A    between atoms: _308  and  _309
REMARK  127  A    between atoms: _319  and  _321
REMARK  128  A    between atoms: _321  and  _322
REMARK  129  A    between atoms: _321  and  _324
REMARK  130  A    between atoms: _324  and  _325
REMARK  131  A    between atoms: _325  and  _326
REMARK  132  A    between atoms: _329  and  _331
REMARK  133  A    between atoms: _331  and  _332
REMARK  134  A    between atoms: _331  and  _334
REMARK  135  A    between atoms: _334  and  _335
REMARK  136  A    between atoms: _335  and  _336
REMARK  137  A    between atoms: _336  and  _337
REMARK  138  A    between atoms: _346  and  _348
REMARK  139  A    between atoms: _348  and  _349
REMARK  140  A    between atoms: _348  and  _351
REMARK  141  A    between atoms: _351  and  _352
REMARK  142  A    between atoms: _357  and  _358
REMARK  143  A    between atoms: _360  and  _362
REMARK  144  A    between atoms: _362  and  _363
REMARK  145  A    between atoms: _362  and  _365
REMARK  146  A    between atoms: _365  and  _366
REMARK  147  A    between atoms: _366  and  _367
REMARK  148  A    between atoms: _372  and  _374
REMARK  149  A    between atoms: _374  and  _375
REMARK  150  A    between atoms: _374  and  _377
REMARK  151  A    between atoms: _377  and  _378
REMARK  152  A    between atoms: _384  and  _386
REMARK  153  A    between atoms: _386  and  _387
REMARK  154  A    between atoms: _386  and  _389
REMARK  155  A    between atoms: _389  and  _390
REMARK  156  A    between atoms: _390  and  _391
REMARK  157  A    between atoms: _391  and  _392
REMARK  158  A    between atoms: _392  and  _393
REMARK  159  A    between atoms: _397  and  _399
REMARK  160  A    between atoms: _399  and  _400
REMARK  161  A    between atoms: _402  and  _404
REMARK  162  A    between atoms: _404  and  _405
REMARK  163  A    between atoms: _404  and  _407
REMARK  164  A    between atoms: _407  and  _408
REMARK  165  A    between atoms: _414  and  _415
REMARK  166  A    between atoms: _420  and  _422
REMARK  167  A    between atoms: _422  and  _423
REMARK  168  A    between atoms: _422  and  _425
REMARK  169  A    between atoms: _425  and  _426
REMARK  170  A    between atoms: _426  and  _427
REMARK  171  A    between atoms: _427  and  _428
REMARK  172  A    between atoms: _437  and  _439
REMARK  173  A    between atoms: _439  and  _440
REMARK  174  A    between atoms: _442  and  _444
REMARK  175  A    between atoms: _444  and  _445
REMARK  176  A    between atoms: _444  and  _447
REMARK  177  A    between atoms: _447  and  _448
REMARK  178  A    between atoms: _453  and  _455
REMARK  179  A    between atoms: _455  and  _456
REMARK  180  A    between atoms: _455  and  _458
REMARK  181  A    between atoms: _458  and  _459
REMARK  182  A    between atoms: _463  and  _464
REMARK  183  A    between atoms: _469  and  _471
REMARK  184  A    between atoms: _471  and  _472
REMARK  185  A    between atoms: _475  and  _477
REMARK  186  A    between atoms: _477  and  _478
REMARK  187  A    between atoms: _477  and  _480
REMARK  188  A    between atoms: _480  and  _481
REMARK  189  A    between atoms: _486  and  _488
REMARK  190  A    between atoms: _488  and  _489
REMARK  191  A    between atoms: _488  and  _491
REMARK  192  A    between atoms: _491  and  _492
REMARK  193  A    between atoms: _495  and  _497
REMARK  194  A    between atoms: _497  and  _498
REMARK  195  A    between atoms: _497  and  _500
REMARK  196  A    between atoms: _500  and  _501
REMARK  197  A    between atoms: _503  and  _505
REMARK  198  A    between atoms: _505  and  _506
REMARK  199  A    between atoms: _505  and  _508
REMARK  200  A    between atoms: _508  and  _509
REMARK  201  A    between atoms: _515  and  _517
REMARK  202  A    between atoms: _517  and  _518
REMARK  203  A    between atoms: _517  and  _520
REMARK  204  A    between atoms: _520  and  _521
REMARK  205  A    between atoms: _521  and  _522
REMARK  206  A    between atoms: _525  and  _527
REMARK  207  A    between atoms: _527  and  _528
REMARK  208  A    between atoms: _527  and  _530
REMARK  209  A    between atoms: _533  and  _535
REMARK  210  A    between atoms: _535  and  _536
REMARK  211  A    between atoms: _535  and  _538
REMARK  212  A    between atoms: _538  and  _539
REMARK  213  A    between atoms: _542  and  _544
REMARK  214  A    between atoms: _544  and  _545
REMARK  215  A    between atoms: _544  and  _547
REMARK  216  A    between atoms: _550  and  _552
REMARK  217  A    between atoms: _552  and  _553
REMARK  218  A    between atoms: _556  and  _558
REMARK  219  A    between atoms: _558  and  _559
REMARK  220  A    between atoms: _558  and  _561
REMARK  221  A    between atoms: _561  and  _562
REMARK  222  A    between atoms: _564  and  _566
REMARK  223  A    between atoms: _566  and  _567
REMARK  224  A    between atoms: _566  and  _569
REMARK  225  A    between atoms: _569  and  _570
REMARK  226  A    between atoms: _572  and  _574
REMARK  227  A    between atoms: _574  and  _575
REMARK  228  A    between atoms: _574  and  _577
REMARK  229  A    between atoms: _577  and  _578
REMARK  230  A    between atoms: _581  and  _583
REMARK  231  A    between atoms: _583  and  _584
REMARK  232  A    between atoms: _583  and  _586
REMARK  233  A    between atoms: _586  and  _587
REMARK  234  A    between atoms: _592  and  _593
REMARK  235  A    between atoms: _595  and  _597
REMARK  236  A    between atoms: _597  and  _598
REMARK  237  A    between atoms: _597  and  _600
REMARK  238  A    between atoms: _600  and  _601
REMARK  239  A    between atoms: _607  and  _609
REMARK  240  A    between atoms: _609  and  _610
REMARK  241  A    between atoms: _609  and  _612
REMARK  242  A    between atoms: _612  and  _613
REMARK  243  A    between atoms: _615  and  _617
REMARK  244  A    between atoms: _617  and  _618
REMARK  245  A    between atoms: _617  and  _620
REMARK  246  A    between atoms: _620  and  _621
REMARK  247  A    between atoms: _624  and  _626
REMARK  248  A    between atoms: _626  and  _627
REMARK  249  A    between atoms: _626  and  _629
REMARK  250  A    between atoms: _629  and  _630
REMARK  251  A    between atoms: _635  and  _636
REMARK                            x       y       z     vdW  Elec       q    Type
REMARK                         _______ _______ _______ _____ _____    ______ ____
ROOT
ATOM      1  O   HOH     1      10.900  10.475  -2.620  0.00  0.00    +0.000 OA
ENDROOT
TORSDOF 0
REMARK  Name = ../refined-set-2016/2ihj/2ihj_pocket.pdb
REMARK  251 active torsions:
REMARK  status: ('A' for Active; 'I' for Inactive)
REMARK    1  A    between atoms: _1  and  _3
REMARK    2  A    between atoms: _3  and  _4
REMARK    3  A    between atoms: _3  and  _6
REMARK    4  A    between atoms: _6  and  _7
REMARK    5  A    between atoms: _11  and  _12
REMARK    6  A    between atoms: _17  and  _19
REMARK    7  A    between atoms: _19  and  _20
REMARK    8  A    between atoms: _23  and  _25
REMARK    9  A    between atoms: _25  and  _26
REMARK   10  A    between atoms: _25  and  _28
REMARK   11  A    between atoms: _28  and  _29
REMARK   12  A    between atoms: _31  and  _33
REMARK   13  A    between atoms: _33  and  _34
REMARK   14  A    between atoms: _33  and  _36
REMARK   15  A    between atoms: _36  and  _37
REMARK   16  A    between atoms: _41  and  _42
REMARK   17  A    between atoms: _47  and  _49
REMARK   18  A    between atoms: _49  and  _50
REMARK   19  A    between atoms: _49  and  _52
REMARK   20  A    between atoms: _52  and  _53
REMARK   21  A    between atoms: _56  and  _58
REMARK   22  A    between atoms: _58  and  _59
REMARK   23  A    between atoms: _58  and  _61
REMARK   24  A    between atoms: _61  and  _62
REMARK   25  A    between atoms: _62  and  _63
REMARK   26  A    between atoms: _63  and  _64
REMARK   27  A    between atoms: _73  and  _75
REMARK   28  A    between atoms: _75  and  _76
REMARK   29  A    between atoms: _75  and  _78
REMARK   30  A    between atoms: _78  and  _79
REMARK   31  A    between atoms: _85  and  _87
REMARK   32  A    between atoms: _87  and  _88
REMARK   33  A    between atoms: _87  and  _90
REMARK   34  A    between atoms: _90  and  _91
REMARK   35  A    between atoms: _96  and  _98
REMARK   36  A    between atoms: _98  and  _99
REMARK   37  A    between atoms: _102  and  _104
REMARK   38  A    between atoms: _104  and  _105
REMARK   39  A    between atoms: _104  and  _107
REMARK   40  A    between atoms: _107  and  _108
REMARK   41  A    between atoms: _113  and  _115
REMARK   42  A    between atoms: _115  and  _116
REMARK   43  A    between atoms: _115  and  _118
REMARK   44  A    between atoms: _118  and  _119
REMARK   45  A    between atoms: _122  and  _124
REMARK   46  A    between atoms: _124  and  _125
REMARK   47  A    between atoms: _124  and  _127
REMARK   48  A    between atoms: _127  and  _128
REMARK   49  A    between atoms: _131  and  _133
REMARK   50  A    between atoms: _133  and  _134
REMARK   51  A    between atoms: _136  and  _138
REMARK   52  A    between atoms: _138  and  _139
REMARK   53  A    between atoms: _138  and  _141
REMARK   54  A    between atoms: _141  and  _142
REMARK   55  A    between atoms: _144  and  _146
REMARK   56  A    between atoms: _146  and  _147
REMARK   57  A    between atoms: _146  and  _149
REMARK   58  A    between atoms: _149  and  _150
REMARK   59  A    between atoms: _150  and  _151
REMARK   60  A    between atoms: _153  and  _155
REMARK   61  A    between atoms: _155  and  _156
REMARK   62  A    between atoms: _155  and  _158
REMARK   63  A    between atoms: _158  and  _159
REMARK   64  A    between atoms: _159  and  _160
REMARK   65  A    between atoms: _163  and  _165
REMARK   66  A    between atoms: _165  and  _166
REMARK   67  A    between atoms: _165  and  _168
REMARK   68  A    between atoms: _168  and  _169
REMARK   69  A    between atoms: _174  and  _175
REMARK   70  A    between atoms: _177  and  _179
REMARK   71  A    between atoms: _179  and  _180
REMARK   72  A    between atoms: _179  and  _182
REMARK   73  A    between atoms: _185  and  _187
REMARK   74  A    between atoms: _187  and  _188
REMARK   75  A    between atoms: _187  and  _190
REMARK   76  A    between atoms: _190  and  _191
REMARK   77  A    between atoms: _194  and  _196
REMARK   78  A    between atoms: _196  and  _197
REMARK   79  A    between atoms: _196  and  _199
REMARK   80  A    between atoms: _199  and  _200
REMARK   81  A    between atoms: _200  and  _201
REMARK   82  A    between atoms: _201  and  _202
REMARK   83  A    between atoms: _202  and  _203
REMARK   84  A    between atoms: _207  and  _209
REMARK   85  A    between atoms: _209  and  _210
REMARK   86  A    between atoms: _209  and  _212
REMARK   87  A    between atoms: _212  and  _213
REMARK   88  A    between atoms: _216  and  _218
REMARK   89  A    between atoms: _218  and  _219
REMARK   90  A    between atoms: _218  and  _221
REMARK   91  A    between atoms: _221  and  _222
REMARK   92  A    between atoms: _222  and  _223
REMARK   93  A    between atoms: _225  and  _227
REMARK   94  A    between atoms: _227  and  _228
REMARK   95  A    between atoms: _227  and  _230
REMARK   96  A    between atoms: _230  and  _231
REMARK   97  A    between atoms: _241  and  _243
REMARK   98  A    between atoms: _243  and  _244
REMARK   99  A    between atoms: _243  and  _246
REMARK  100  A    between atoms: _246  and  _247
REMARK  101  A    between atoms: _250  and  _252
REMARK  102  A    between atoms: _252  and  _253
REMARK  103  A    between atoms: _252  and  _255
REMARK  104  A    between atoms: _255  and  _256
REMARK  105  A    between atoms: _262  and  _264
REMARK  106  A    between atoms: _264  and  _265
REMARK  107  A    between atoms: _264  and  _267
REMARK  108  A    between atoms: _267  and  _268
REMARK  109  A    between atoms: _271  and  _273
REMARK  110  A    between atoms: _273  and  _274
REMARK  111  A    between atoms: _276  and  _278
REMARK  112  A    between atoms: _278  and  _279
REMARK  113  A    between atoms: _278  and  _281
REMARK  114  A    between atoms: _281  and  _282
REMARK  115  A    between atoms: _285  and  _287
REMARK  116  A    between atoms: _287  and  _288
REMARK  117  A    between atoms: _287  and  _290
REMARK  118  A    between atoms: _290  and  _291
REMARK  119  A    between atoms: _294  and  _296
REMARK  120  A    between atoms: _296  and  _297
REMARK  121  A    between atoms: _296  and  _299
REMARK  122  A    between atoms: _299  and  _300
REMARK  123  A    between atoms: _303  and  _305
REMARK  124  A    between atoms: _305  and  _306
REMARK  125  A    between atoms: _305  and  _308
REMARK  126  A    between atoms: _308  and  _309
REMARK  127  A    between atoms: _319  and  _321
REMARK  128  A    between atoms: _321  and  _322
REMARK  129  A    between atoms: _321  and  _324
REMARK  130  A    between atoms: _324  and  _325
REMARK  131  A    between atoms: _325  and  _326
REMARK  132  A    between atoms: _329  and  _331
REMARK  133  A    between atoms: _331  and  _332
REMARK  134  A    between atoms: _331  and  _334
REMARK  135  A    between atoms: _334  and  _335
REMARK  136  A    between atoms: _335  and  _336
REMARK  137  A    between atoms: _336  and  _337
REMARK  138  A    between atoms: _346  and  _348
REMARK  139  A    between atoms: _348  and  _349
REMARK  140  A    between atoms: _348  and  _351
REMARK  141  A    between atoms: _351  and  _352
REMARK  142  A    between atoms: _357  and  _358
REMARK  143  A    between atoms: _360  and  _362
REMARK  144  A    between atoms: _362  and  _363
REMARK  145  A    between atoms: _362  and  _365
REMARK  146  A    between atoms: _365  and  _366
REMARK  147  A    between atoms: _366  and  _367
REMARK  148  A    between atoms: _372  and  _374
REMARK  149  A    between atoms: _374  and  _375
REMARK  150  A    between atoms: _374  and  _377
REMARK  151  A    between atoms: _377  and  _378
REMARK  152  A    between atoms: _384  and  _386
REMARK  153  A    between atoms: _386  and  _387
REMARK  154  A    between atoms: _386  and  _389
REMARK  155  A    between atoms: _389  and  _390
REMARK  156  A    between atoms: _390  and  _391
REMARK  157  A    between atoms: _391  and  _392
REMARK  158  A    between atoms: _392  and  _393
REMARK  159  A    between atoms: _397  and  _399
REMARK  160  A    between atoms: _399  and  _400
REMARK  161  A    between atoms: _402  and  _404
REMARK  162  A    between atoms: _404  and  _405
REMARK  163  A    between atoms: _404  and  _407
REMARK  164  A    between atoms: _407  and  _408
REMARK  165  A    between atoms: _414  and  _415
REMARK  166  A    between atoms: _420  and  _422
REMARK  167  A    between atoms: _422  and  _423
REMARK  168  A    between atoms: _422  and  _425
REMARK  169  A    between atoms: _425  and  _426
REMARK  170  A    between atoms: _426  and  _427
REMARK  171  A    between atoms: _427  and  _428
REMARK  172  A    between atoms: _437  and  _439
REMARK  173  A    between atoms: _439  and  _440
REMARK  174  A    between atoms: _442  and  _444
REMARK  175  A    between atoms: _444  and  _445
REMARK  176  A    between atoms: _444  and  _447
REMARK  177  A    between atoms: _447  and  _448
REMARK  178  A    between atoms: _453  and  _455
REMARK  179  A    between atoms: _455  and  _456
REMARK  180  A    between atoms: _455  and  _458
REMARK  181  A    between atoms: _458  and  _459
REMARK  182  A    between atoms: _463  and  _464
REMARK  183  A    between atoms: _469  and  _471
REMARK  184  A    between atoms: _471  and  _472
REMARK  185  A    between atoms: _475  and  _477
REMARK  186  A    between atoms: _477  and  _478
REMARK  187  A    between atoms: _477  and  _480
REMARK  188  A    between atoms: _480  and  _481
REMARK  189  A    between atoms: _486  and  _488
REMARK  190  A    between atoms: _488  and  _489
REMARK  191  A    between atoms: _488  and  _491
REMARK  192  A    between atoms: _491  and  _492
REMARK  193  A    between atoms: _495  and  _497
REMARK  194  A    between atoms: _497  and  _498
REMARK  195  A    between atoms: _497  and  _500
REMARK  196  A    between atoms: _500  and  _501
REMARK  197  A    between atoms: _503  and  _505
REMARK  198  A    between atoms: _505  and  _506
REMARK  199  A    between atoms: _505  and  _508
REMARK  200  A    between atoms: _508  and  _509
REMARK  201  A    between atoms: _515  and  _517
REMARK  202  A    between atoms: _517  and  _518
REMARK  203  A    between atoms: _517  and  _520
REMARK  204  A    between atoms: _520  and  _521
REMARK  205  A    between atoms: _521  and  _522
REMARK  206  A    between atoms: _525  and  _527
REMARK  207  A    between atoms: _527  and  _528
REMARK  208  A    between atoms: _527  and  _530
REMARK  209  A    between atoms: _533  and  _535
REMARK  210  A    between atoms: _535  and  _536
REMARK  211  A    between atoms: _535  and  _538
REMARK  212  A    between atoms: _538  and  _539
REMARK  213  A    between atoms: _542  and  _544
REMARK  214  A    between atoms: _544  and  _545
REMARK  215  A    between atoms: _544  and  _547
REMARK  216  A    between atoms: _550  and  _552
REMARK  217  A    between atoms: _552  and  _553
REMARK  218  A    between atoms: _556  and  _558
REMARK  219  A    between atoms: _558  and  _559
REMARK  220  A    between atoms: _558  and  _561
REMARK  221  A    between atoms: _561  and  _562
REMARK  222  A    between atoms: _564  and  _566
REMARK  223  A    between atoms: _566  and  _567
REMARK  224  A    between atoms: _566  and  _569
REMARK  225  A    between atoms: _569  and  _570
REMARK  226  A    between atoms: _572  and  _574
REMARK  227  A    between atoms: _574  and  _575
REMARK  228  A    between atoms: _574  and  _577
REMARK  229  A    between atoms: _577  and  _578
REMARK  230  A    between atoms: _581  and  _583
REMARK  231  A    between atoms: _583  and  _584
REMARK  232  A    between atoms: _583  and  _586
REMARK  233  A    between atoms: _586  and  _587
REMARK  234  A    between atoms: _592  and  _593
REMARK  235  A    between atoms: _595  and  _597
REMARK  236  A    between atoms: _597  and  _598
REMARK  237  A    between atoms: _597  and  _600
REMARK  238  A    between atoms: _600  and  _601
REMARK  239  A    between atoms: _607  and  _609
REMARK  240  A    between atoms: _609  and  _610
REMARK  241  A    between atoms: _609  and  _612
REMARK  242  A    between atoms: _612  and  _613
REMARK  243  A    between atoms: _615  and  _617
REMARK  244  A    between atoms: _617  and  _618
REMARK  245  A    between atoms: _617  and  _620
REMARK  246  A    between atoms: _620  and  _621
REMARK  247  A    between atoms: _624  and  _626
REMARK  248  A    between atoms: _626  and  _627
REMARK  249  A    between atoms: _626  and  _629
REMARK  250  A    between atoms: _629  and  _630
REMARK  251  A    between atoms: _635  and  _636
REMARK                            x       y       z     vdW  Elec       q    Type
REMARK                         _______ _______ _______ _____ _____    ______ ____
ROOT
ATOM      1  O   HOH     1       3.947   6.007  -7.375  0.00  0.00    +0.000 OA
ENDROOT
TORSDOF 0
REMARK  Name = ../refined-set-2016/2ihj/2ihj_pocket.pdb
REMARK  251 active torsions:
REMARK  status: ('A' for Active; 'I' for Inactive)
REMARK    1  A    between atoms: _1  and  _3
REMARK    2  A    between atoms: _3  and  _4
REMARK    3  A    between atoms: _3  and  _6
REMARK    4  A    between atoms: _6  and  _7
REMARK    5  A    between atoms: _11  and  _12
REMARK    6  A    between atoms: _17  and  _19
REMARK    7  A    between atoms: _19  and  _20
REMARK    8  A    between atoms: _23  and  _25
REMARK    9  A    between atoms: _25  and  _26
REMARK   10  A    between atoms: _25  and  _28
REMARK   11  A    between atoms: _28  and  _29
REMARK   12  A    between atoms: _31  and  _33
REMARK   13  A    between atoms: _33  and  _34
REMARK   14  A    between atoms: _33  and  _36
REMARK   15  A    between atoms: _36  and  _37
REMARK   16  A    between atoms: _41  and  _42
REMARK   17  A    between atoms: _47  and  _49
REMARK   18  A    between atoms: _49  and  _50
REMARK   19  A    between atoms: _49  and  _52
REMARK   20  A    between atoms: _52  and  _53
REMARK   21  A    between atoms: _56  and  _58
REMARK   22  A    between atoms: _58  and  _59
REMARK   23  A    between atoms: _58  and  _61
REMARK   24  A    between atoms: _61  and  _62
REMARK   25  A    between atoms: _62  and  _63
REMARK   26  A    between atoms: _63  and  _64
REMARK   27  A    between atoms: _73  and  _75
REMARK   28  A    between atoms: _75  and  _76
REMARK   29  A    between atoms: _75  and  _78
REMARK   30  A    between atoms: _78  and  _79
REMARK   31  A    between atoms: _85  and  _87
REMARK   32  A    between atoms: _87  and  _88
REMARK   33  A    between atoms: _87  and  _90
REMARK   34  A    between atoms: _90  and  _91
REMARK   35  A    between atoms: _96  and  _98
REMARK   36  A    between atoms: _98  and  _99
REMARK   37  A    between atoms: _102  and  _104
REMARK   38  A    between atoms: _104  and  _105
REMARK   39  A    between atoms: _104  and  _107
REMARK   40  A    between atoms: _107  and  _108
REMARK   41  A    between atoms: _113  and  _115
REMARK   42  A    between atoms: _115  and  _116
REMARK   43  A    between atoms: _115  and  _118
REMARK   44  A    between atoms: _118  and  _119
REMARK   45  A    between atoms: _122  and  _124
REMARK   46  A    between atoms: _124  and  _125
REMARK   47  A    between atoms: _124  and  _127
REMARK   48  A    between atoms: _127  and  _128
REMARK   49  A    between atoms: _131  and  _133
REMARK   50  A    between atoms: _133  and  _134
REMARK   51  A    between atoms: _136  and  _138
REMARK   52  A    between atoms: _138  and  _139
REMARK   53  A    between atoms: _138  and  _141
REMARK   54  A    between atoms: _141  and  _142
REMARK   55  A    between atoms: _144  and  _146
REMARK   56  A    between atoms: _146  and  _147
REMARK   57  A    between atoms: _146  and  _149
REMARK   58  A    between atoms: _149  and  _150
REMARK   59  A    between atoms: _150  and  _151
REMARK   60  A    between atoms: _153  and  _155
REMARK   61  A    between atoms: _155  and  _156
REMARK   62  A    between atoms: _155  and  _158
REMARK   63  A    between atoms: _158  and  _159
REMARK   64  A    between atoms: _159  and  _160
REMARK   65  A    between atoms: _163  and  _165
REMARK   66  A    between atoms: _165  and  _166
REMARK   67  A    between atoms: _165  and  _168
REMARK   68  A    between atoms: _168  and  _169
REMARK   69  A    between atoms: _174  and  _175
REMARK   70  A    between atoms: _177  and  _179
REMARK   71  A    between atoms: _179  and  _180
REMARK   72  A    between atoms: _179  and  _182
REMARK   73  A    between atoms: _185  and  _187
REMARK   74  A    between atoms: _187  and  _188
REMARK   75  A    between atoms: _187  and  _190
REMARK   76  A    between atoms: _190  and  _191
REMARK   77  A    between atoms: _194  and  _196
REMARK   78  A    between atoms: _196  and  _197
REMARK   79  A    between atoms: _196  and  _199
REMARK   80  A    between atoms: _199  and  _200
REMARK   81  A    between atoms: _200  and  _201
REMARK   82  A    between atoms: _201  and  _202
REMARK   83  A    between atoms: _202  and  _203
REMARK   84  A    between atoms: _207  and  _209
REMARK   85  A    between atoms: _209  and  _210
REMARK   86  A    between atoms: _209  and  _212
REMARK   87  A    between atoms: _212  and  _213
REMARK   88  A    between atoms: _216  and  _218
REMARK   89  A    between atoms: _218  and  _219
REMARK   90  A    between atoms: _218  and  _221
REMARK   91  A    between atoms: _221  and  _222
REMARK   92  A    between atoms: _222  and  _223
REMARK   93  A    between atoms: _225  and  _227
REMARK   94  A    between atoms: _227  and  _228
REMARK   95  A    between atoms: _227  and  _230
REMARK   96  A    between atoms: _230  and  _231
REMARK   97  A    between atoms: _241  and  _243
REMARK   98  A    between atoms: _243  and  _244
REMARK   99  A    between atoms: _243  and  _246
REMARK  100  A    between atoms: _246  and  _247
REMARK  101  A    between atoms: _250  and  _252
REMARK  102  A    between atoms: _252  and  _253
REMARK  103  A    between atoms: _252  and  _255
REMARK  104  A    between atoms: _255  and  _256
REMARK  105  A    between atoms: _262  and  _264
REMARK  106  A    between atoms: _264  and  _265
REMARK  107  A    between atoms: _264  and  _267
REMARK  108  A    between atoms: _267  and  _268
REMARK  109  A    between atoms: _271  and  _273
REMARK  110  A    between atoms: _273  and  _274
REMARK  111  A    between atoms: _276  and  _278
REMARK  112  A    between atoms: _278  and  _279
REMARK  113  A    between atoms: _278  and  _281
REMARK  114  A    between atoms: _281  and  _282
REMARK  115  A    between atoms: _285  and  _287
REMARK  116  A    between atoms: _287  and  _288
REMARK  117  A    between atoms: _287  and  _290
REMARK  118  A    between atoms: _290  and  _291
REMARK  119  A    between atoms: _294  and  _296
REMARK  120  A    between atoms: _296  and  _297
REMARK  121  A    between atoms: _296  and  _299
REMARK  122  A    between atoms: _299  and  _300
REMARK  123  A    between atoms: _303  and  _305
REMARK  124  A    between atoms: _305  and  _306
REMARK  125  A    between atoms: _305  and  _308
REMARK  126  A    between atoms: _308  and  _309
REMARK  127  A    between atoms: _319  and  _321
REMARK  128  A    between atoms: _321  and  _322
REMARK  129  A    between atoms: _321  and  _324
REMARK  130  A    between atoms: _324  and  _325
REMARK  131  A    between atoms: _325  and  _326
REMARK  132  A    between atoms: _329  and  _331
REMARK  133  A    between atoms: _331  and  _332
REMARK  134  A    between atoms: _331  and  _334
REMARK  135  A    between atoms: _334  and  _335
REMARK  136  A    between atoms: _335  and  _336
REMARK  137  A    between atoms: _336  and  _337
REMARK  138  A    between atoms: _346  and  _348
REMARK  139  A    between atoms: _348  and  _349
REMARK  140  A    between atoms: _348  and  _351
REMARK  141  A    between atoms: _351  and  _352
REMARK  142  A    between atoms: _357  and  _358
REMARK  143  A    between atoms: _360  and  _362
REMARK  144  A    between atoms: _362  and  _363
REMARK  145  A    between atoms: _362  and  _365
REMARK  146  A    between atoms: _365  and  _366
REMARK  147  A    between atoms: _366  and  _367
REMARK  148  A    between atoms: _372  and  _374
REMARK  149  A    between atoms: _374  and  _375
REMARK  150  A    between atoms: _374  and  _377
REMARK  151  A    between atoms: _377  and  _378
REMARK  152  A    between atoms: _384  and  _386
REMARK  153  A    between atoms: _386  and  _387
REMARK  154  A    between atoms: _386  and  _389
REMARK  155  A    between atoms: _389  and  _390
REMARK  156  A    between atoms: _390  and  _391
REMARK  157  A    between atoms: _391  and  _392
REMARK  158  A    between atoms: _392  and  _393
REMARK  159  A    between atoms: _397  and  _399
REMARK  160  A    between atoms: _399  and  _400
REMARK  161  A    between atoms: _402  and  _404
REMARK  162  A    between atoms: _404  and  _405
REMARK  163  A    between atoms: _404  and  _407
REMARK  164  A    between atoms: _407  and  _408
REMARK  165  A    between atoms: _414  and  _415
REMARK  166  A    between atoms: _420  and  _422
REMARK  167  A    between atoms: _422  and  _423
REMARK  168  A    between atoms: _422  and  _425
REMARK  169  A    between atoms: _425  and  _426
REMARK  170  A    between atoms: _426  and  _427
REMARK  171  A    between atoms: _427  and  _428
REMARK  172  A    between atoms: _437  and  _439
REMARK  173  A    between atoms: _439  and  _440
REMARK  174  A    between atoms: _442  and  _444
REMARK  175  A    between atoms: _444  and  _445
REMARK  176  A    between atoms: _444  and  _447
REMARK  177  A    between atoms: _447  and  _448
REMARK  178  A    between atoms: _453  and  _455
REMARK  179  A    between atoms: _455  and  _456
REMARK  180  A    between atoms: _455  and  _458
REMARK  181  A    between atoms: _458  and  _459
REMARK  182  A    between atoms: _463  and  _464
REMARK  183  A    between atoms: _469  and  _471
REMARK  184  A    between atoms: _471  and  _472
REMARK  185  A    between atoms: _475  and  _477
REMARK  186  A    between atoms: _477  and  _478
REMARK  187  A    between atoms: _477  and  _480
REMARK  188  A    between atoms: _480  and  _481
REMARK  189  A    between atoms: _486  and  _488
REMARK  190  A    between atoms: _488  and  _489
REMARK  191  A    between atoms: _488  and  _491
REMARK  192  A    between atoms: _491  and  _492
REMARK  193  A    between atoms: _495  and  _497
REMARK  194  A    between atoms: _497  and  _498
REMARK  195  A    between atoms: _497  and  _500
REMARK  196  A    between atoms: _500  and  _501
REMARK  197  A    between atoms: _503  and  _505
REMARK  198  A    between atoms: _505  and  _506
REMARK  199  A    between atoms: _505  and  _508
REMARK  200  A    between atoms: _508  and  _509
REMARK  201  A    between atoms: _515  and  _517
REMARK  202  A    between atoms: _517  and  _518
REMARK  203  A    between atoms: _517  and  _520
REMARK  204  A    between atoms: _520  and  _521
REMARK  205  A    between atoms: _521  and  _522
REMARK  206  A    between atoms: _525  and  _527
REMARK  207  A    between atoms: _527  and  _528
REMARK  208  A    between atoms: _527  and  _530
REMARK  209  A    between atoms: _533  and  _535
REMARK  210  A    between atoms: _535  and  _536
REMARK  211  A    between atoms: _535  and  _538
REMARK  212  A    between atoms: _538  and  _539
REMARK  213  A    between atoms: _542  and  _544
REMARK  214  A    between atoms: _544  and  _545
REMARK  215  A    between atoms: _544  and  _547
REMARK  216  A    between atoms: _550  and  _552
REMARK  217  A    between atoms: _552  and  _553
REMARK  218  A    between atoms: _556  and  _558
REMARK  219  A    between atoms: _558  and  _559
REMARK  220  A    between atoms: _558  and  _561
REMARK  221  A    between atoms: _561  and  _562
REMARK  222  A    between atoms: _564  and  _566
REMARK  223  A    between atoms: _566  and  _567
REMARK  224  A    between atoms: _566  and  _569
REMARK  225  A    between atoms: _569  and  _570
REMARK  226  A    between atoms: _572  and  _574
REMARK  227  A    between atoms: _574  and  _575
REMARK  228  A    between atoms: _574  and  _577
REMARK  229  A    between atoms: _577  and  _578
REMARK  230  A    between atoms: _581  and  _583
REMARK  231  A    between atoms: _583  and  _584
REMARK  232  A    between atoms: _583  and  _586
REMARK  233  A    between atoms: _586  and  _587
REMARK  234  A    between atoms: _592  and  _593
REMARK  235  A    between atoms: _595  and  _597
REMARK  236  A    between atoms: _597  and  _598
REMARK  237  A    between atoms: _597  and  _600
REMARK  238  A    between atoms: _600  and  _601
REMARK  239  A    between atoms: _607  and  _609
REMARK  240  A    between atoms: _609  and  _610
REMARK  241  A    between atoms: _609  and  _612
REMARK  242  A    between atoms: _612  and  _613
REMARK  243  A    between atoms: _615  and  _617
REMARK  244  A    between atoms: _617  and  _618
REMARK  245  A    between atoms: _617  and  _620
REMARK  246  A    between atoms: _620  and  _621
REMARK  247  A    between atoms: _624  and  _626
REMARK  248  A    between atoms: _626  and  _627
REMARK  249  A    between atoms: _626  and  _629
REMARK  250  A    between atoms: _629  and  _630
REMARK  251  A    between atoms: _635  and  _636
REMARK                            x       y       z     vdW  Elec       q    Type
REMARK                         _______ _______ _______ _____ _____    ______ ____
ROOT
ATOM      1  O   HOH     1      12.355   8.800  -4.463  0.00  0.00    +0.000 OA
ENDROOT
TORSDOF 0
REMARK  Name = ../refined-set-2016/2ihj/2ihj_pocket.pdb
REMARK  251 active torsions:
REMARK  status: ('A' for Active; 'I' for Inactive)
REMARK    1  A    between atoms: _1  and  _3
REMARK    2  A    between atoms: _3  and  _4
REMARK    3  A    between atoms: _3  and  _6
REMARK    4  A    between atoms: _6  and  _7
REMARK    5  A    between atoms: _11  and  _12
REMARK    6  A    between atoms: _17  and  _19
REMARK    7  A    between atoms: _19  and  _20
REMARK    8  A    between atoms: _23  and  _25
REMARK    9  A    between atoms: _25  and  _26
REMARK   10  A    between atoms: _25  and  _28
REMARK   11  A    between atoms: _28  and  _29
REMARK   12  A    between atoms: _31  and  _33
REMARK   13  A    between atoms: _33  and  _34
REMARK   14  A    between atoms: _33  and  _36
REMARK   15  A    between atoms: _36  and  _37
REMARK   16  A    between atoms: _41  and  _42
REMARK   17  A    between atoms: _47  and  _49
REMARK   18  A    between atoms: _49  and  _50
REMARK   19  A    between atoms: _49  and  _52
REMARK   20  A    between atoms: _52  and  _53
REMARK   21  A    between atoms: _56  and  _58
REMARK   22  A    between atoms: _58  and  _59
REMARK   23  A    between atoms: _58  and  _61
REMARK   24  A    between atoms: _61  and  _62
REMARK   25  A    between atoms: _62  and  _63
REMARK   26  A    between atoms: _63  and  _64
REMARK   27  A    between atoms: _73  and  _75
REMARK   28  A    between atoms: _75  and  _76
REMARK   29  A    between atoms: _75  and  _78
REMARK   30  A    between atoms: _78  and  _79
REMARK   31  A    between atoms: _85  and  _87
REMARK   32  A    between atoms: _87  and  _88
REMARK   33  A    between atoms: _87  and  _90
REMARK   34  A    between atoms: _90  and  _91
REMARK   35  A    between atoms: _96  and  _98
REMARK   36  A    between atoms: _98  and  _99
REMARK   37  A    between atoms: _102  and  _104
REMARK   38  A    between atoms: _104  and  _105
REMARK   39  A    between atoms: _104  and  _107
REMARK   40  A    between atoms: _107  and  _108
REMARK   41  A    between atoms: _113  and  _115
REMARK   42  A    between atoms: _115  and  _116
REMARK   43  A    between atoms: _115  and  _118
REMARK   44  A    between atoms: _118  and  _119
REMARK   45  A    between atoms: _122  and  _124
REMARK   46  A    between atoms: _124  and  _125
REMARK   47  A    between atoms: _124  and  _127
REMARK   48  A    between atoms: _127  and  _128
REMARK   49  A    between atoms: _131  and  _133
REMARK   50  A    between atoms: _133  and  _134
REMARK   51  A    between atoms: _136  and  _138
REMARK   52  A    between atoms: _138  and  _139
REMARK   53  A    between atoms: _138  and  _141
REMARK   54  A    between atoms: _141  and  _142
REMARK   55  A    between atoms: _144  and  _146
REMARK   56  A    between atoms: _146  and  _147
REMARK   57  A    between atoms: _146  and  _149
REMARK   58  A    between atoms: _149  and  _150
REMARK   59  A    between atoms: _150  and  _151
REMARK   60  A    between atoms: _153  and  _155
REMARK   61  A    between atoms: _155  and  _156
REMARK   62  A    between atoms: _155  and  _158
REMARK   63  A    between atoms: _158  and  _159
REMARK   64  A    between atoms: _159  and  _160
REMARK   65  A    between atoms: _163  and  _165
REMARK   66  A    between atoms: _165  and  _166
REMARK   67  A    between atoms: _165  and  _168
REMARK   68  A    between atoms: _168  and  _169
REMARK   69  A    between atoms: _174  and  _175
REMARK   70  A    between atoms: _177  and  _179
REMARK   71  A    between atoms: _179  and  _180
REMARK   72  A    between atoms: _179  and  _182
REMARK   73  A    between atoms: _185  and  _187
REMARK   74  A    between atoms: _187  and  _188
REMARK   75  A    between atoms: _187  and  _190
REMARK   76  A    between atoms: _190  and  _191
REMARK   77  A    between atoms: _194  and  _196
REMARK   78  A    between atoms: _196  and  _197
REMARK   79  A    between atoms: _196  and  _199
REMARK   80  A    between atoms: _199  and  _200
REMARK   81  A    between atoms: _200  and  _201
REMARK   82  A    between atoms: _201  and  _202
REMARK   83  A    between atoms: _202  and  _203
REMARK   84  A    between atoms: _207  and  _209
REMARK   85  A    between atoms: _209  and  _210
REMARK   86  A    between atoms: _209  and  _212
REMARK   87  A    between atoms: _212  and  _213
REMARK   88  A    between atoms: _216  and  _218
REMARK   89  A    between atoms: _218  and  _219
REMARK   90  A    between atoms: _218  and  _221
REMARK   91  A    between atoms: _221  and  _222
REMARK   92  A    between atoms: _222  and  _223
REMARK   93  A    between atoms: _225  and  _227
REMARK   94  A    between atoms: _227  and  _228
REMARK   95  A    between atoms: _227  and  _230
REMARK   96  A    between atoms: _230  and  _231
REMARK   97  A    between atoms: _241  and  _243
REMARK   98  A    between atoms: _243  and  _244
REMARK   99  A    between atoms: _243  and  _246
REMARK  100  A    between atoms: _246  and  _247
REMARK  101  A    between atoms: _250  and  _252
REMARK  102  A    between atoms: _252  and  _253
REMARK  103  A    between atoms: _252  and  _255
REMARK  104  A    between atoms: _255  and  _256
REMARK  105  A    between atoms: _262  and  _264
REMARK  106  A    between atoms: _264  and  _265
REMARK  107  A    between atoms: _264  and  _267
REMARK  108  A    between atoms: _267  and  _268
REMARK  109  A    between atoms: _271  and  _273
REMARK  110  A    between atoms: _273  and  _274
REMARK  111  A    between atoms: _276  and  _278
REMARK  112  A    between atoms: _278  and  _279
REMARK  113  A    between atoms: _278  and  _281
REMARK  114  A    between atoms: _281  and  _282
REMARK  115  A    between atoms: _285  and  _287
REMARK  116  A    between atoms: _287  and  _288
REMARK  117  A    between atoms: _287  and  _290
REMARK  118  A    between atoms: _290  and  _291
REMARK  119  A    between atoms: _294  and  _296
REMARK  120  A    between atoms: _296  and  _297
REMARK  121  A    between atoms: _296  and  _299
REMARK  122  A    between atoms: _299  and  _300
REMARK  123  A    between atoms: _303  and  _305
REMARK  124  A    between atoms: _305  and  _306
REMARK  125  A    between atoms: _305  and  _308
REMARK  126  A    between atoms: _308  and  _309
REMARK  127  A    between atoms: _319  and  _321
REMARK  128  A    between atoms: _321  and  _322
REMARK  129  A    between atoms: _321  and  _324
REMARK  130  A    between atoms: _324  and  _325
REMARK  131  A    between atoms: _325  and  _326
REMARK  132  A    between atoms: _329  and  _331
REMARK  133  A    between atoms: _331  and  _332
REMARK  134  A    between atoms: _331  and  _334
REMARK  135  A    between atoms: _334  and  _335
REMARK  136  A    between atoms: _335  and  _336
REMARK  137  A    between atoms: _336  and  _337
REMARK  138  A    between atoms: _346  and  _348
REMARK  139  A    between atoms: _348  and  _349
REMARK  140  A    between atoms: _348  and  _351
REMARK  141  A    between atoms: _351  and  _352
REMARK  142  A    between atoms: _357  and  _358
REMARK  143  A    between atoms: _360  and  _362
REMARK  144  A    between atoms: _362  and  _363
REMARK  145  A    between atoms: _362  and  _365
REMARK  146  A    between atoms: _365  and  _366
REMARK  147  A    between atoms: _366  and  _367
REMARK  148  A    between atoms: _372  and  _374
REMARK  149  A    between atoms: _374  and  _375
REMARK  150  A    between atoms: _374  and  _377
REMARK  151  A    between atoms: _377  and  _378
REMARK  152  A    between atoms: _384  and  _386
REMARK  153  A    between atoms: _386  and  _387
REMARK  154  A    between atoms: _386  and  _389
REMARK  155  A    between atoms: _389  and  _390
REMARK  156  A    between atoms: _390  and  _391
REMARK  157  A    between atoms: _391  and  _392
REMARK  158  A    between atoms: _392  and  _393
REMARK  159  A    between atoms: _397  and  _399
REMARK  160  A    between atoms: _399  and  _400
REMARK  161  A    between atoms: _402  and  _404
REMARK  162  A    between atoms: _404  and  _405
REMARK  163  A    between atoms: _404  and  _407
REMARK  164  A    between atoms: _407  and  _408
REMARK  165  A    between atoms: _414  and  _415
REMARK  166  A    between atoms: _420  and  _422
REMARK  167  A    between atoms: _422  and  _423
REMARK  168  A    between atoms: _422  and  _425
REMARK  169  A    between atoms: _425  and  _426
REMARK  170  A    between atoms: _426  and  _427
REMARK  171  A    between atoms: _427  and  _428
REMARK  172  A    between atoms: _437  and  _439
REMARK  173  A    between atoms: _439  and  _440
REMARK  174  A    between atoms: _442  and  _444
REMARK  175  A    between atoms: _444  and  _445
REMARK  176  A    between atoms: _444  and  _447
REMARK  177  A    between atoms: _447  and  _448
REMARK  178  A    between atoms: _453  and  _455
REMARK  179  A    between atoms: _455  and  _456
REMARK  180  A    between atoms: _455  and  _458
REMARK  181  A    between atoms: _458  and  _459
REMARK  182  A    between atoms: _463  and  _464
REMARK  183  A    between atoms: _469  and  _471
REMARK  184  A    between atoms: _471  and  _472
REMARK  185  A    between atoms: _475  and  _477
REMARK  186  A    between atoms: _477  and  _478
REMARK  187  A    between atoms: _477  and  _480
REMARK  188  A    between atoms: _480  and  _481
REMARK  189  A    between atoms: _486  and  _488
REMARK  190  A    between atoms: _488  and  _489
REMARK  191  A    between atoms: _488  and  _491
REMARK  192  A    between atoms: _491  and  _492
REMARK  193  A    between atoms: _495  and  _497
REMARK  194  A    between atoms: _497  and  _498
REMARK  195  A    between atoms: _497  and  _500
REMARK  196  A    between atoms: _500  and  _501
REMARK  197  A    between atoms: _503  and  _505
REMARK  198  A    between atoms: _505  and  _506
REMARK  199  A    between atoms: _505  and  _508
REMARK  200  A    between atoms: _508  and  _509
REMARK  201  A    between atoms: _515  and  _517
REMARK  202  A    between atoms: _517  and  _518
REMARK  203  A    between atoms: _517  and  _520
REMARK  204  A    between atoms: _520  and  _521
REMARK  205  A    between atoms: _521  and  _522
REMARK  206  A    between atoms: _525  and  _527
REMARK  207  A    between atoms: _527  and  _528
REMARK  208  A    between atoms: _527  and  _530
REMARK  209  A    between atoms: _533  and  _535
REMARK  210  A    between atoms: _535  and  _536
REMARK  211  A    between atoms: _535  and  _538
REMARK  212  A    between atoms: _538  and  _539
REMARK  213  A    between atoms: _542  and  _544
REMARK  214  A    between atoms: _544  and  _545
REMARK  215  A    between atoms: _544  and  _547
REMARK  216  A    between atoms: _550  and  _552
REMARK  217  A    between atoms: _552  and  _553
REMARK  218  A    between atoms: _556  and  _558
REMARK  219  A    between atoms: _558  and  _559
REMARK  220  A    between atoms: _558  and  _561
REMARK  221  A    between atoms: _561  and  _562
REMARK  222  A    between atoms: _564  and  _566
REMARK  223  A    between atoms: _566  and  _567
REMARK  224  A    between atoms: _566  and  _569
REMARK  225  A    between atoms: _569  and  _570
REMARK  226  A    between atoms: _572  and  _574
REMARK  227  A    between atoms: _574  and  _575
REMARK  228  A    between atoms: _574  and  _577
REMARK  229  A    between atoms: _577  and  _578
REMARK  230  A    between atoms: _581  and  _583
REMARK  231  A    between atoms: _583  and  _584
REMARK  232  A    between atoms: _583  and  _586
REMARK  233  A    between atoms: _586  and  _587
REMARK  234  A    between atoms: _592  and  _593
REMARK  235  A    between atoms: _595  and  _597
REMARK  236  A    between atoms: _597  and  _598
REMARK  237  A    between atoms: _597  and  _600
REMARK  238  A    between atoms: _600  and  _601
REMARK  239  A    between atoms: _607  and  _609
REMARK  240  A    between atoms: _609  and  _610
REMARK  241  A    between atoms: _609  and  _612
REMARK  242  A    between atoms: _612  and  _613
REMARK  243  A    between atoms: _615  and  _617
REMARK  244  A    between atoms: _617  and  _618
REMARK  245  A    between atoms: _617  and  _620
REMARK  246  A    between atoms: _620  and  _621
REMARK  247  A    between atoms: _624  and  _626
REMARK  248  A    between atoms: _626  and  _627
REMARK  249  A    between atoms: _626  and  _629
REMARK  250  A    between atoms: _629  and  _630
REMARK  251  A    between atoms: _635  and  _636
REMARK                            x       y       z     vdW  Elec       q    Type
REMARK                         _______ _______ _______ _____ _____    ______ ____
ROOT
ATOM      1  O   HOH     1      13.730  10.166  -6.189  0.00  0.00    +0.000 OA
ENDROOT
TORSDOF 0
REMARK  Name = ../refined-set-2016/2ihj/2ihj_pocket.pdb
REMARK  251 active torsions:
REMARK  status: ('A' for Active; 'I' for Inactive)
REMARK    1  A    between atoms: _1  and  _3
REMARK    2  A    between atoms: _3  and  _4
REMARK    3  A    between atoms: _3  and  _6
REMARK    4  A    between atoms: _6  and  _7
REMARK    5  A    between atoms: _11  and  _12
REMARK    6  A    between atoms: _17  and  _19
REMARK    7  A    between atoms: _19  and  _20
REMARK    8  A    between atoms: _23  and  _25
REMARK    9  A    between atoms: _25  and  _26
REMARK   10  A    between atoms: _25  and  _28
REMARK   11  A    between atoms: _28  and  _29
REMARK   12  A    between atoms: _31  and  _33
REMARK   13  A    between atoms: _33  and  _34
REMARK   14  A    between atoms: _33  and  _36
REMARK   15  A    between atoms: _36  and  _37
REMARK   16  A    between atoms: _41  and  _42
REMARK   17  A    between atoms: _47  and  _49
REMARK   18  A    between atoms: _49  and  _50
REMARK   19  A    between atoms: _49  and  _52
REMARK   20  A    between atoms: _52  and  _53
REMARK   21  A    between atoms: _56  and  _58
REMARK   22  A    between atoms: _58  and  _59
REMARK   23  A    between atoms: _58  and  _61
REMARK   24  A    between atoms: _61  and  _62
REMARK   25  A    between atoms: _62  and  _63
REMARK   26  A    between atoms: _63  and  _64
REMARK   27  A    between atoms: _73  and  _75
REMARK   28  A    between atoms: _75  and  _76
REMARK   29  A    between atoms: _75  and  _78
REMARK   30  A    between atoms: _78  and  _79
REMARK   31  A    between atoms: _85  and  _87
REMARK   32  A    between atoms: _87  and  _88
REMARK   33  A    between atoms: _87  and  _90
REMARK   34  A    between atoms: _90  and  _91
REMARK   35  A    between atoms: _96  and  _98
REMARK   36  A    between atoms: _98  and  _99
REMARK   37  A    between atoms: _102  and  _104
REMARK   38  A    between atoms: _104  and  _105
REMARK   39  A    between atoms: _104  and  _107
REMARK   40  A    between atoms: _107  and  _108
REMARK   41  A    between atoms: _113  and  _115
REMARK   42  A    between atoms: _115  and  _116
REMARK   43  A    between atoms: _115  and  _118
REMARK   44  A    between atoms: _118  and  _119
REMARK   45  A    between atoms: _122  and  _124
REMARK   46  A    between atoms: _124  and  _125
REMARK   47  A    between atoms: _124  and  _127
REMARK   48  A    between atoms: _127  and  _128
REMARK   49  A    between atoms: _131  and  _133
REMARK   50  A    between atoms: _133  and  _134
REMARK   51  A    between atoms: _136  and  _138
REMARK   52  A    between atoms: _138  and  _139
REMARK   53  A    between atoms: _138  and  _141
REMARK   54  A    between atoms: _141  and  _142
REMARK   55  A    between atoms: _144  and  _146
REMARK   56  A    between atoms: _146  and  _147
REMARK   57  A    between atoms: _146  and  _149
REMARK   58  A    between atoms: _149  and  _150
REMARK   59  A    between atoms: _150  and  _151
REMARK   60  A    between atoms: _153  and  _155
REMARK   61  A    between atoms: _155  and  _156
REMARK   62  A    between atoms: _155  and  _158
REMARK   63  A    between atoms: _158  and  _159
REMARK   64  A    between atoms: _159  and  _160
REMARK   65  A    between atoms: _163  and  _165
REMARK   66  A    between atoms: _165  and  _166
REMARK   67  A    between atoms: _165  and  _168
REMARK   68  A    between atoms: _168  and  _169
REMARK   69  A    between atoms: _174  and  _175
REMARK   70  A    between atoms: _177  and  _179
REMARK   71  A    between atoms: _179  and  _180
REMARK   72  A    between atoms: _179  and  _182
REMARK   73  A    between atoms: _185  and  _187
REMARK   74  A    between atoms: _187  and  _188
REMARK   75  A    between atoms: _187  and  _190
REMARK   76  A    between atoms: _190  and  _191
REMARK   77  A    between atoms: _194  and  _196
REMARK   78  A    between atoms: _196  and  _197
REMARK   79  A    between atoms: _196  and  _199
REMARK   80  A    between atoms: _199  and  _200
REMARK   81  A    between atoms: _200  and  _201
REMARK   82  A    between atoms: _201  and  _202
REMARK   83  A    between atoms: _202  and  _203
REMARK   84  A    between atoms: _207  and  _209
REMARK   85  A    between atoms: _209  and  _210
REMARK   86  A    between atoms: _209  and  _212
REMARK   87  A    between atoms: _212  and  _213
REMARK   88  A    between atoms: _216  and  _218
REMARK   89  A    between atoms: _218  and  _219
REMARK   90  A    between atoms: _218  and  _221
REMARK   91  A    between atoms: _221  and  _222
REMARK   92  A    between atoms: _222  and  _223
REMARK   93  A    between atoms: _225  and  _227
REMARK   94  A    between atoms: _227  and  _228
REMARK   95  A    between atoms: _227  and  _230
REMARK   96  A    between atoms: _230  and  _231
REMARK   97  A    between atoms: _241  and  _243
REMARK   98  A    between atoms: _243  and  _244
REMARK   99  A    between atoms: _243  and  _246
REMARK  100  A    between atoms: _246  and  _247
REMARK  101  A    between atoms: _250  and  _252
REMARK  102  A    between atoms: _252  and  _253
REMARK  103  A    between atoms: _252  and  _255
REMARK  104  A    between atoms: _255  and  _256
REMARK  105  A    between atoms: _262  and  _264
REMARK  106  A    between atoms: _264  and  _265
REMARK  107  A    between atoms: _264  and  _267
REMARK  108  A    between atoms: _267  and  _268
REMARK  109  A    between atoms: _271  and  _273
REMARK  110  A    between atoms: _273  and  _274
REMARK  111  A    between atoms: _276  and  _278
REMARK  112  A    between atoms: _278  and  _279
REMARK  113  A    between atoms: _278  and  _281
REMARK  114  A    between atoms: _281  and  _282
REMARK  115  A    between atoms: _285  and  _287
REMARK  116  A    between atoms: _287  and  _288
REMARK  117  A    between atoms: _287  and  _290
REMARK  118  A    between atoms: _290  and  _291
REMARK  119  A    between atoms: _294  and  _296
REMARK  120  A    between atoms: _296  and  _297
REMARK  121  A    between atoms: _296  and  _299
REMARK  122  A    between atoms: _299  and  _300
REMARK  123  A    between atoms: _303  and  _305
REMARK  124  A    between atoms: _305  and  _306
REMARK  125  A    between atoms: _305  and  _308
REMARK  126  A    between atoms: _308  and  _309
REMARK  127  A    between atoms: _319  and  _321
REMARK  128  A    between atoms: _321  and  _322
REMARK  129  A    between atoms: _321  and  _324
REMARK  130  A    between atoms: _324  and  _325
REMARK  131  A    between atoms: _325  and  _326
REMARK  132  A    between atoms: _329  and  _331
REMARK  133  A    between atoms: _331  and  _332
REMARK  134  A    between atoms: _331  and  _334
REMARK  135  A    between atoms: _334  and  _335
REMARK  136  A    between atoms: _335  and  _336
REMARK  137  A    between atoms: _336  and  _337
REMARK  138  A    between atoms: _346  and  _348
REMARK  139  A    between atoms: _348  and  _349
REMARK  140  A    between atoms: _348  and  _351
REMARK  141  A    between atoms: _351  and  _352
REMARK  142  A    between atoms: _357  and  _358
REMARK  143  A    between atoms: _360  and  _362
REMARK  144  A    between atoms: _362  and  _363
REMARK  145  A    between atoms: _362  and  _365
REMARK  146  A    between atoms: _365  and  _366
REMARK  147  A    between atoms: _366  and  _367
REMARK  148  A    between atoms: _372  and  _374
REMARK  149  A    between atoms: _374  and  _375
REMARK  150  A    between atoms: _374  and  _377
REMARK  151  A    between atoms: _377  and  _378
REMARK  152  A    between atoms: _384  and  _386
REMARK  153  A    between atoms: _386  and  _387
REMARK  154  A    between atoms: _386  and  _389
REMARK  155  A    between atoms: _389  and  _390
REMARK  156  A    between atoms: _390  and  _391
REMARK  157  A    between atoms: _391  and  _392
REMARK  158  A    between atoms: _392  and  _393
REMARK  159  A    between atoms: _397  and  _399
REMARK  160  A    between atoms: _399  and  _400
REMARK  161  A    between atoms: _402  and  _404
REMARK  162  A    between atoms: _404  and  _405
REMARK  163  A    between atoms: _404  and  _407
REMARK  164  A    between atoms: _407  and  _408
REMARK  165  A    between atoms: _414  and  _415
REMARK  166  A    between atoms: _420  and  _422
REMARK  167  A    between atoms: _422  and  _423
REMARK  168  A    between atoms: _422  and  _425
REMARK  169  A    between atoms: _425  and  _426
REMARK  170  A    between atoms: _426  and  _427
REMARK  171  A    between atoms: _427  and  _428
REMARK  172  A    between atoms: _437  and  _439
REMARK  173  A    between atoms: _439  and  _440
REMARK  174  A    between atoms: _442  and  _444
REMARK  175  A    between atoms: _444  and  _445
REMARK  176  A    between atoms: _444  and  _447
REMARK  177  A    between atoms: _447  and  _448
REMARK  178  A    between atoms: _453  and  _455
REMARK  179  A    between atoms: _455  and  _456
REMARK  180  A    between atoms: _455  and  _458
REMARK  181  A    between atoms: _458  and  _459
REMARK  182  A    between atoms: _463  and  _464
REMARK  183  A    between atoms: _469  and  _471
REMARK  184  A    between atoms: _471  and  _472
REMARK  185  A    between atoms: _475  and  _477
REMARK  186  A    between atoms: _477  and  _478
REMARK  187  A    between atoms: _477  and  _480
REMARK  188  A    between atoms: _480  and  _481
REMARK  189  A    between atoms: _486  and  _488
REMARK  190  A    between atoms: _488  and  _489
REMARK  191  A    between atoms: _488  and  _491
REMARK  192  A    between atoms: _491  and  _492
REMARK  193  A    between atoms: _495  and  _497
REMARK  194  A    between atoms: _497  and  _498
REMARK  195  A    between atoms: _497  and  _500
REMARK  196  A    between atoms: _500  and  _501
REMARK  197  A    between atoms: _503  and  _505
REMARK  198  A    between atoms: _505  and  _506
REMARK  199  A    between atoms: _505  and  _508
REMARK  200  A    between atoms: _508  and  _509
REMARK  201  A    between atoms: _515  and  _517
REMARK  202  A    between atoms: _517  and  _518
REMARK  203  A    between atoms: _517  and  _520
REMARK  204  A    between atoms: _520  and  _521
REMARK  205  A    between atoms: _521  and  _522
REMARK  206  A    between atoms: _525  and  _527
REMARK  207  A    between atoms: _527  and  _528
REMARK  208  A    between atoms: _527  and  _530
REMARK  209  A    between atoms: _533  and  _535
REMARK  210  A    between atoms: _535  and  _536
REMARK  211  A    between atoms: _535  and  _538
REMARK  212  A    between atoms: _538  and  _539
REMARK  213  A    between atoms: _542  and  _544
REMARK  214  A    between atoms: _544  and  _545
REMARK  215  A    between atoms: _544  and  _547
REMARK  216  A    between atoms: _550  and  _552
REMARK  217  A    between atoms: _552  and  _553
REMARK  218  A    between atoms: _556  and  _558
REMARK  219  A    between atoms: _558  and  _559
REMARK  220  A    between atoms: _558  and  _561
REMARK  221  A    between atoms: _561  and  _562
REMARK  222  A    between atoms: _564  and  _566
REMARK  223  A    between atoms: _566  and  _567
REMARK  224  A    between atoms: _566  and  _569
REMARK  225  A    between atoms: _569  and  _570
REMARK  226  A    between atoms: _572  and  _574
REMARK  227  A    between atoms: _574  and  _575
REMARK  228  A    between atoms: _574  and  _577
REMARK  229  A    between atoms: _577  and  _578
REMARK  230  A    between atoms: _581  and  _583
REMARK  231  A    between atoms: _583  and  _584
REMARK  232  A    between atoms: _583  and  _586
REMARK  233  A    between atoms: _586  and  _587
REMARK  234  A    between atoms: _592  and  _593
REMARK  235  A    between atoms: _595  and  _597
REMARK  236  A    between atoms: _597  and  _598
REMARK  237  A    between atoms: _597  and  _600
REMARK  238  A    between atoms: _600  and  _601
REMARK  239  A    between atoms: _607  and  _609
REMARK  240  A    between atoms: _609  and  _610
REMARK  241  A    between atoms: _609  and  _612
REMARK  242  A    between atoms: _612  and  _613
REMARK  243  A    between atoms: _615  and  _617
REMARK  244  A    between atoms: _617  and  _618
REMARK  245  A    between atoms: _617  and  _620
REMARK  246  A    between atoms: _620  and  _621
REMARK  247  A    between atoms: _624  and  _626
REMARK  248  A    between atoms: _626  and  _627
REMARK  249  A    between atoms: _626  and  _629
REMARK  250  A    between atoms: _629  and  _630
REMARK  251  A    between atoms: _635  and  _636
REMARK                            x       y       z     vdW  Elec       q    Type
REMARK                         _______ _______ _______ _____ _____    ______ ____
ROOT
ATOM      1  O   HOH     1       6.130   6.349 -10.583  0.00  0.00    +0.000 OA
ENDROOT
TORSDOF 0
