REMARK  Name = ../refined-set-2016/2o4j/2o4j_pocket.pdb
REMARK  284 active torsions:
REMARK  status: ('A' for Active; 'I' for Inactive)
REMARK    1  A    between atoms: _1  and  _3
REMARK    2  A    between atoms: _3  and  _4
REMARK    3  A    between atoms: _3  and  _6
REMARK    4  A    between atoms: _6  and  _7
REMARK    5  A    between atoms: _10  and  _12
REMARK    6  A    between atoms: _12  and  _13
REMARK    7  A    between atoms: _12  and  _15
REMARK    8  A    between atoms: _15  and  _16
REMARK    9  A    between atoms: _21  and  _22
REMARK   10  A    between atoms: _24  and  _26
REMARK   11  A    between atoms: _26  and  _27
REMARK   12  A    between atoms: _26  and  _29
REMARK   13  A    between atoms: _29  and  _30
REMARK   14  A    between atoms: _34  and  _35
REMARK   15  A    between atoms: _40  and  _42
REMARK   16  A    between atoms: _42  and  _43
REMARK   17  A    between atoms: _42  and  _45
REMARK   18  A    between atoms: _45  and  _46
REMARK   19  A    between atoms: _51  and  _52
REMARK   20  A    between atoms: _54  and  _56
REMARK   21  A    between atoms: _56  and  _57
REMARK   22  A    between atoms: _56  and  _59
REMARK   23  A    between atoms: _59  and  _60
REMARK   24  A    between atoms: _66  and  _68
REMARK   25  A    between atoms: _68  and  _69
REMARK   26  A    between atoms: _68  and  _71
REMARK   27  A    between atoms: _71  and  _72
REMARK   28  A    between atoms: _78  and  _80
REMARK   29  A    between atoms: _80  and  _81
REMARK   30  A    between atoms: _80  and  _83
REMARK   31  A    between atoms: _83  and  _84
REMARK   32  A    between atoms: _84  and  _85
REMARK   33  A    between atoms: _85  and  _86
REMARK   34  A    between atoms: _95  and  _97
REMARK   35  A    between atoms: _97  and  _98
REMARK   36  A    between atoms: _97  and  _100
REMARK   37  A    between atoms: _100  and  _101
REMARK   38  A    between atoms: _101  and  _102
REMARK   39  A    between atoms: _104  and  _106
REMARK   40  A    between atoms: _106  and  _107
REMARK   41  A    between atoms: _106  and  _109
REMARK   42  A    between atoms: _109  and  _110
REMARK   43  A    between atoms: _114  and  _115
REMARK   44  A    between atoms: _120  and  _122
REMARK   45  A    between atoms: _122  and  _123
REMARK   46  A    between atoms: _122  and  _125
REMARK   47  A    between atoms: _125  and  _126
REMARK   48  A    between atoms: _131  and  _133
REMARK   49  A    between atoms: _133  and  _134
REMARK   50  A    between atoms: _133  and  _136
REMARK   51  A    between atoms: _136  and  _137
REMARK   52  A    between atoms: _140  and  _142
REMARK   53  A    between atoms: _142  and  _143
REMARK   54  A    between atoms: _146  and  _148
REMARK   55  A    between atoms: _148  and  _149
REMARK   56  A    between atoms: _148  and  _151
REMARK   57  A    between atoms: _151  and  _152
REMARK   58  A    between atoms: _155  and  _157
REMARK   59  A    between atoms: _157  and  _158
REMARK   60  A    between atoms: _157  and  _160
REMARK   61  A    between atoms: _160  and  _161
REMARK   62  A    between atoms: _164  and  _166
REMARK   63  A    between atoms: _166  and  _167
REMARK   64  A    between atoms: _166  and  _169
REMARK   65  A    between atoms: _172  and  _174
REMARK   66  A    between atoms: _174  and  _175
REMARK   67  A    between atoms: _174  and  _177
REMARK   68  A    between atoms: _177  and  _178
REMARK   69  A    between atoms: _180  and  _182
REMARK   70  A    between atoms: _182  and  _183
REMARK   71  A    between atoms: _182  and  _185
REMARK   72  A    between atoms: _185  and  _186
REMARK   73  A    between atoms: _191  and  _192
REMARK   74  A    between atoms: _194  and  _196
REMARK   75  A    between atoms: _196  and  _197
REMARK   76  A    between atoms: _196  and  _199
REMARK   77  A    between atoms: _199  and  _200
REMARK   78  A    between atoms: _202  and  _204
REMARK   79  A    between atoms: _204  and  _205
REMARK   80  A    between atoms: _204  and  _207
REMARK   81  A    between atoms: _207  and  _208
REMARK   82  A    between atoms: _211  and  _213
REMARK   83  A    between atoms: _213  and  _214
REMARK   84  A    between atoms: _213  and  _216
REMARK   85  A    between atoms: _216  and  _217
REMARK   86  A    between atoms: _217  and  _218
REMARK   87  A    between atoms: _218  and  _219
REMARK   88  A    between atoms: _219  and  _220
REMARK   89  A    between atoms: _224  and  _226
REMARK   90  A    between atoms: _226  and  _227
REMARK   91  A    between atoms: _226  and  _229
REMARK   92  A    between atoms: _232  and  _234
REMARK   93  A    between atoms: _234  and  _235
REMARK   94  A    between atoms: _238  and  _240
REMARK   95  A    between atoms: _240  and  _241
REMARK   96  A    between atoms: _240  and  _243
REMARK   97  A    between atoms: _243  and  _244
REMARK   98  A    between atoms: _247  and  _249
REMARK   99  A    between atoms: _249  and  _250
REMARK  100  A    between atoms: _249  and  _252
REMARK  101  A    between atoms: _252  and  _253
REMARK  102  A    between atoms: _253  and  _254
REMARK  103  A    between atoms: _257  and  _259
REMARK  104  A    between atoms: _259  and  _260
REMARK  105  A    between atoms: _259  and  _262
REMARK  106  A    between atoms: _265  and  _267
REMARK  107  A    between atoms: _267  and  _268
REMARK  108  A    between atoms: _267  and  _270
REMARK  109  A    between atoms: _270  and  _271
REMARK  110  A    between atoms: _274  and  _276
REMARK  111  A    between atoms: _276  and  _277
REMARK  112  A    between atoms: _276  and  _279
REMARK  113  A    between atoms: _279  and  _280
REMARK  114  A    between atoms: _280  and  _281
REMARK  115  A    between atoms: _283  and  _285
REMARK  116  A    between atoms: _285  and  _286
REMARK  117  A    between atoms: _285  and  _288
REMARK  118  A    between atoms: _288  and  _289
REMARK  119  A    between atoms: _292  and  _294
REMARK  120  A    between atoms: _294  and  _295
REMARK  121  A    between atoms: _294  and  _297
REMARK  122  A    between atoms: _297  and  _298
REMARK  123  A    between atoms: _298  and  _299
REMARK  124  A    between atoms: _299  and  _300
REMARK  125  A    between atoms: _309  and  _311
REMARK  126  A    between atoms: _311  and  _312
REMARK  127  A    between atoms: _311  and  _314
REMARK  128  A    between atoms: _314  and  _315
REMARK  129  A    between atoms: _317  and  _319
REMARK  130  A    between atoms: _319  and  _320
REMARK  131  A    between atoms: _319  and  _322
REMARK  132  A    between atoms: _322  and  _323
REMARK  133  A    between atoms: _328  and  _330
REMARK  134  A    between atoms: _330  and  _331
REMARK  135  A    between atoms: _330  and  _333
REMARK  136  A    between atoms: _333  and  _334
REMARK  137  A    between atoms: _334  and  _335
REMARK  138  A    between atoms: _340  and  _342
REMARK  139  A    between atoms: _342  and  _343
REMARK  140  A    between atoms: _342  and  _345
REMARK  141  A    between atoms: _345  and  _346
REMARK  142  A    between atoms: _348  and  _350
REMARK  143  A    between atoms: _350  and  _351
REMARK  144  A    between atoms: _350  and  _353
REMARK  145  A    between atoms: _353  and  _354
REMARK  146  A    between atoms: _360  and  _362
REMARK  147  A    between atoms: _362  and  _363
REMARK  148  A    between atoms: _362  and  _365
REMARK  149  A    between atoms: _365  and  _366
REMARK  150  A    between atoms: _368  and  _370
REMARK  151  A    between atoms: _370  and  _371
REMARK  152  A    between atoms: _370  and  _373
REMARK  153  A    between atoms: _373  and  _374
REMARK  154  A    between atoms: _384  and  _386
REMARK  155  A    between atoms: _386  and  _387
REMARK  156  A    between atoms: _386  and  _389
REMARK  157  A    between atoms: _389  and  _390
REMARK  158  A    between atoms: _393  and  _395
REMARK  159  A    between atoms: _395  and  _396
REMARK  160  A    between atoms: _395  and  _398
REMARK  161  A    between atoms: _400  and  _402
REMARK  162  A    between atoms: _402  and  _403
REMARK  163  A    between atoms: _402  and  _405
REMARK  164  A    between atoms: _405  and  _406
REMARK  165  A    between atoms: _411  and  _412
REMARK  166  A    between atoms: _414  and  _416
REMARK  167  A    between atoms: _416  and  _417
REMARK  168  A    between atoms: _416  and  _419
REMARK  169  A    between atoms: _419  and  _420
REMARK  170  A    between atoms: _420  and  _421
REMARK  171  A    between atoms: _421  and  _422
REMARK  172  A    between atoms: _422  and  _423
REMARK  173  A    between atoms: _427  and  _429
REMARK  174  A    between atoms: _429  and  _430
REMARK  175  A    between atoms: _429  and  _432
REMARK  176  A    between atoms: _432  and  _433
REMARK  177  A    between atoms: _438  and  _439
REMARK  178  A    between atoms: _441  and  _443
REMARK  179  A    between atoms: _443  and  _444
REMARK  180  A    between atoms: _443  and  _446
REMARK  181  A    between atoms: _446  and  _447
REMARK  182  A    between atoms: _450  and  _452
REMARK  183  A    between atoms: _452  and  _453
REMARK  184  A    between atoms: _452  and  _455
REMARK  185  A    between atoms: _455  and  _456
REMARK  186  A    between atoms: _459  and  _461
REMARK  187  A    between atoms: _461  and  _462
REMARK  188  A    between atoms: _461  and  _464
REMARK  189  A    between atoms: _467  and  _469
REMARK  190  A    between atoms: _469  and  _470
REMARK  191  A    between atoms: _469  and  _472
REMARK  192  A    between atoms: _472  and  _473
REMARK  193  A    between atoms: _475  and  _477
REMARK  194  A    between atoms: _477  and  _478
REMARK  195  A    between atoms: _481  and  _483
REMARK  196  A    between atoms: _483  and  _484
REMARK  197  A    between atoms: _486  and  _488
REMARK  198  A    between atoms: _488  and  _489
REMARK  199  A    between atoms: _488  and  _491
REMARK  200  A    between atoms: _491  and  _492
REMARK  201  A    between atoms: _497  and  _499
REMARK  202  A    between atoms: _499  and  _500
REMARK  203  A    between atoms: _499  and  _502
REMARK  204  A    between atoms: _502  and  _503
REMARK  205  A    between atoms: _506  and  _508
REMARK  206  A    between atoms: _508  and  _509
REMARK  207  A    between atoms: _508  and  _511
REMARK  208  A    between atoms: _511  and  _512
REMARK  209  A    between atoms: _515  and  _517
REMARK  210  A    between atoms: _517  and  _518
REMARK  211  A    between atoms: _517  and  _520
REMARK  212  A    between atoms: _520  and  _521
REMARK  213  A    between atoms: _524  and  _526
REMARK  214  A    between atoms: _526  and  _527
REMARK  215  A    between atoms: _526  and  _529
REMARK  216  A    between atoms: _529  and  _530
REMARK  217  A    between atoms: _530  and  _531
REMARK  218  A    between atoms: _536  and  _538
REMARK  219  A    between atoms: _538  and  _539
REMARK  220  A    between atoms: _538  and  _541
REMARK  221  A    between atoms: _541  and  _542
REMARK  222  A    between atoms: _545  and  _547
REMARK  223  A    between atoms: _547  and  _548
REMARK  224  A    between atoms: _547  and  _550
REMARK  225  A    between atoms: _550  and  _551
REMARK  226  A    between atoms: _551  and  _552
REMARK  227  A    between atoms: _555  and  _557
REMARK  228  A    between atoms: _557  and  _558
REMARK  229  A    between atoms: _557  and  _560
REMARK  230  A    between atoms: _560  and  _561
REMARK  231  A    between atoms: _566  and  _568
REMARK  232  A    between atoms: _568  and  _569
REMARK  233  A    between atoms: _568  and  _571
REMARK  234  A    between atoms: _571  and  _572
REMARK  235  A    between atoms: _574  and  _576
REMARK  236  A    between atoms: _576  and  _577
REMARK  237  A    between atoms: _576  and  _579
REMARK  238  A    between atoms: _579  and  _580
REMARK  239  A    between atoms: _580  and  _581
REMARK  240  A    between atoms: _586  and  _588
REMARK  241  A    between atoms: _588  and  _589
REMARK  242  A    between atoms: _588  and  _591
REMARK  243  A    between atoms: _591  and  _592
REMARK  244  A    between atoms: _597  and  _598
REMARK  245  A    between atoms: _600  and  _602
REMARK  246  A    between atoms: _602  and  _603
REMARK  247  A    between atoms: _602  and  _605
REMARK  248  A    between atoms: _605  and  _606
REMARK  249  A    between atoms: _606  and  _607
REMARK  250  A    between atoms: _607  and  _608
REMARK  251  A    between atoms: _617  and  _619
REMARK  252  A    between atoms: _619  and  _620
REMARK  253  A    between atoms: _619  and  _622
REMARK  254  A    between atoms: _622  and  _623
REMARK  255  A    between atoms: _626  and  _628
REMARK  256  A    between atoms: _628  and  _629
REMARK  257  A    between atoms: _628  and  _631
REMARK  258  A    between atoms: _631  and  _632
REMARK  259  A    between atoms: _634  and  _636
REMARK  260  A    between atoms: _636  and  _637
REMARK  261  A    between atoms: _636  and  _639
REMARK  262  A    between atoms: _639  and  _640
REMARK  263  A    between atoms: _645  and  _647
REMARK  264  A    between atoms: _647  and  _648
REMARK  265  A    between atoms: _647  and  _650
REMARK  266  A    between atoms: _650  and  _651
REMARK  267  A    between atoms: _651  and  _652
REMARK  268  A    between atoms: _652  and  _653
REMARK  269  A    between atoms: _653  and  _654
REMARK  270  A    between atoms: _658  and  _660
REMARK  271  A    between atoms: _660  and  _661
REMARK  272  A    between atoms: _660  and  _663
REMARK  273  A    between atoms: _663  and  _664
REMARK  274  A    between atoms: _667  and  _669
REMARK  275  A    between atoms: _669  and  _670
REMARK  276  A    between atoms: _669  and  _672
REMARK  277  A    between atoms: _672  and  _673
REMARK  278  A    between atoms: _676  and  _678
REMARK  279  A    between atoms: _678  and  _679
REMARK  280  A    between atoms: _678  and  _681
REMARK  281  A    between atoms: _684  and  _686
REMARK  282  A    between atoms: _686  and  _687
REMARK  283  A    between atoms: _686  and  _689
REMARK  284  A    between atoms: _689  and  _690
REMARK                            x       y       z     vdW  Elec       q    Type
REMARK                         _______ _______ _______ _____ _____    ______ ____
ROOT
ATOM      1  CA  TYR A   2      59.620   7.324   9.084  0.00  0.00    +0.153 C 
ENDROOT
BRANCH   1   3
ATOM      2  C   THR A   1      60.559   5.434  10.339  0.00  0.00    +0.241 C 
ATOM      3  N   TYR A   2      59.858   6.580  10.317  0.00  0.00    -0.297 N 
ATOM      4  H   TYR A   2      59.472   6.950  11.209  0.00  0.00    +0.150 HD
ATOM      5  O   THR A   1      61.142   5.003   9.366  0.00  0.00    -0.274 OA
BRANCH   2   6
ATOM      6  CA  THR A   1      60.685   4.697  11.659  0.00  0.00    +0.172 C 
BRANCH   6   7
ATOM      7  N   THR A   1      59.919   5.285  12.773  0.00  0.00    -0.236 NA
ATOM      8  H   THR A   1      58.892   5.412  12.667  0.00  0.00    +0.142 HD
ENDBRANCH   6   7
BRANCH   6   9
ATOM      9  CB  THR A   1      60.303   3.213  11.406  0.00  0.00    +0.135 C 
ATOM     10  CG2 THR A   1      60.758   2.331  12.573  0.00  0.00    +0.034 C 
BRANCH   9  11
ATOM     11  OG1 THR A   1      58.892   3.119  11.275  0.00  0.00    -0.383 OA
ATOM     12  HG1 THR A   1      58.462   3.439  12.108  0.00  0.00    +0.210 HD
ENDBRANCH   9  11
ENDBRANCH   6   9
ENDBRANCH   2   6
ENDBRANCH   1   3
BRANCH   1  13
ATOM     13  C   TYR A   2      59.803   8.800   9.447  0.00  0.00    +0.241 C 
ATOM     14  O   TYR A   2      58.888   9.411  10.019  0.00  0.00    -0.273 OA
ATOM     15  N   ASP A   3      60.977   9.342   9.132  0.00  0.00    -0.297 N 
ATOM     16  H   ASP A   3      61.695   8.736   8.686  0.00  0.00    +0.150 HD
BRANCH  15  17
ATOM     17  CA  ASP A   3      61.318  10.769   9.384  0.00  0.00    +0.160 C 
BRANCH  17  18
ATOM     18  C   ASP A   3      60.854  11.628   8.192  0.00  0.00    +0.244 C 
ATOM     19  N   PRO A   4      59.781  12.431   8.396  0.00  0.00    -0.273 N 
ATOM     20  CD  PRO A   4      59.058  12.658   9.662  0.00  0.00    +0.094 C 
ATOM     21  CG  PRO A   4      57.948  13.631   9.267  0.00  0.00    +0.024 C 
ATOM     22  CB  PRO A   4      57.829  13.641   7.809  0.00  0.00    +0.030 C 
ATOM     23  CA  PRO A   4      59.192  13.177   7.273  0.00  0.00    +0.140 C 
ATOM     24  O   ASP A   3      61.445  11.570   7.087  0.00  0.00    -0.273 OA
BRANCH  23  25
ATOM     25  C   PRO A   4      60.033  14.365   6.860  0.00  0.00    +0.227 C 
ATOM     26  O   PRO A   4      59.667  15.065   5.905  0.00  0.00    -0.286 OA
ENDBRANCH  23  25
ENDBRANCH  17  18
BRANCH  17  27
ATOM     27  CB  ASP A   3      62.824  10.903   9.626  0.00  0.00    +0.143 C 
BRANCH  27  28
ATOM     28  CG  ASP A   3      63.293  12.340   9.644  0.00  0.00    +0.367 C 
ATOM     29  OD2 ASP A   3      62.463  13.246   9.852  0.00  0.00    -0.246 OA
ATOM     30  OD1 ASP A   3      64.487  12.553   9.434  0.00  0.00    -0.246 OA
ENDBRANCH  27  28
ENDBRANCH  17  27
ENDBRANCH  15  17
ENDBRANCH   1  13
BRANCH   1  31
ATOM     31  CB  TYR A   2      58.202   7.077   8.475  0.00  0.00    +0.055 C 
BRANCH  31  32
ATOM     32  CG  TYR A   2      58.100   7.655   7.065  0.00  0.00    -0.020 A 
ATOM     33  CD2 TYR A   2      57.944   9.038   6.865  0.00  0.00    -0.001 A 
ATOM     34  CE2 TYR A   2      57.890   9.594   5.565  0.00  0.00    +0.036 A 
ATOM     35  CZ  TYR A   2      58.036   8.783   4.461  0.00  0.00    +0.134 A 
ATOM     36  CE1 TYR A   2      58.203   7.396   4.627  0.00  0.00    +0.036 A 
ATOM     37  CD1 TYR A   2      58.238   6.849   5.932  0.00  0.00    -0.001 A 
BRANCH  35  38
ATOM     38  OH  TYR A   2      57.999   9.318   3.192  0.00  0.00    -0.506 OA
ATOM     39  HH  TYR A   2      57.877  10.299   3.252  0.00  0.00    +0.292 HD
ENDBRANCH  35  38
ENDBRANCH  31  32
ENDBRANCH   1  31
TORSDOF 14
REMARK  Name = ../refined-set-2016/2o4j/2o4j_pocket.pdb
REMARK  284 active torsions:
REMARK  status: ('A' for Active; 'I' for Inactive)
REMARK    1  A    between atoms: _1  and  _3
REMARK    2  A    between atoms: _3  and  _4
REMARK    3  A    between atoms: _3  and  _6
REMARK    4  A    between atoms: _6  and  _7
REMARK    5  A    between atoms: _10  and  _12
REMARK    6  A    between atoms: _12  and  _13
REMARK    7  A    between atoms: _12  and  _15
REMARK    8  A    between atoms: _15  and  _16
REMARK    9  A    between atoms: _21  and  _22
REMARK   10  A    between atoms: _24  and  _26
REMARK   11  A    between atoms: _26  and  _27
REMARK   12  A    between atoms: _26  and  _29
REMARK   13  A    between atoms: _29  and  _30
REMARK   14  A    between atoms: _34  and  _35
REMARK   15  A    between atoms: _40  and  _42
REMARK   16  A    between atoms: _42  and  _43
REMARK   17  A    between atoms: _42  and  _45
REMARK   18  A    between atoms: _45  and  _46
REMARK   19  A    between atoms: _51  and  _52
REMARK   20  A    between atoms: _54  and  _56
REMARK   21  A    between atoms: _56  and  _57
REMARK   22  A    between atoms: _56  and  _59
REMARK   23  A    between atoms: _59  and  _60
REMARK   24  A    between atoms: _66  and  _68
REMARK   25  A    between atoms: _68  and  _69
REMARK   26  A    between atoms: _68  and  _71
REMARK   27  A    between atoms: _71  and  _72
REMARK   28  A    between atoms: _78  and  _80
REMARK   29  A    between atoms: _80  and  _81
REMARK   30  A    between atoms: _80  and  _83
REMARK   31  A    between atoms: _83  and  _84
REMARK   32  A    between atoms: _84  and  _85
REMARK   33  A    between atoms: _85  and  _86
REMARK   34  A    between atoms: _95  and  _97
REMARK   35  A    between atoms: _97  and  _98
REMARK   36  A    between atoms: _97  and  _100
REMARK   37  A    between atoms: _100  and  _101
REMARK   38  A    between atoms: _101  and  _102
REMARK   39  A    between atoms: _104  and  _106
REMARK   40  A    between atoms: _106  and  _107
REMARK   41  A    between atoms: _106  and  _109
REMARK   42  A    between atoms: _109  and  _110
REMARK   43  A    between atoms: _114  and  _115
REMARK   44  A    between atoms: _120  and  _122
REMARK   45  A    between atoms: _122  and  _123
REMARK   46  A    between atoms: _122  and  _125
REMARK   47  A    between atoms: _125  and  _126
REMARK   48  A    between atoms: _131  and  _133
REMARK   49  A    between atoms: _133  and  _134
REMARK   50  A    between atoms: _133  and  _136
REMARK   51  A    between atoms: _136  and  _137
REMARK   52  A    between atoms: _140  and  _142
REMARK   53  A    between atoms: _142  and  _143
REMARK   54  A    between atoms: _146  and  _148
REMARK   55  A    between atoms: _148  and  _149
REMARK   56  A    between atoms: _148  and  _151
REMARK   57  A    between atoms: _151  and  _152
REMARK   58  A    between atoms: _155  and  _157
REMARK   59  A    between atoms: _157  and  _158
REMARK   60  A    between atoms: _157  and  _160
REMARK   61  A    between atoms: _160  and  _161
REMARK   62  A    between atoms: _164  and  _166
REMARK   63  A    between atoms: _166  and  _167
REMARK   64  A    between atoms: _166  and  _169
REMARK   65  A    between atoms: _172  and  _174
REMARK   66  A    between atoms: _174  and  _175
REMARK   67  A    between atoms: _174  and  _177
REMARK   68  A    between atoms: _177  and  _178
REMARK   69  A    between atoms: _180  and  _182
REMARK   70  A    between atoms: _182  and  _183
REMARK   71  A    between atoms: _182  and  _185
REMARK   72  A    between atoms: _185  and  _186
REMARK   73  A    between atoms: _191  and  _192
REMARK   74  A    between atoms: _194  and  _196
REMARK   75  A    between atoms: _196  and  _197
REMARK   76  A    between atoms: _196  and  _199
REMARK   77  A    between atoms: _199  and  _200
REMARK   78  A    between atoms: _202  and  _204
REMARK   79  A    between atoms: _204  and  _205
REMARK   80  A    between atoms: _204  and  _207
REMARK   81  A    between atoms: _207  and  _208
REMARK   82  A    between atoms: _211  and  _213
REMARK   83  A    between atoms: _213  and  _214
REMARK   84  A    between atoms: _213  and  _216
REMARK   85  A    between atoms: _216  and  _217
REMARK   86  A    between atoms: _217  and  _218
REMARK   87  A    between atoms: _218  and  _219
REMARK   88  A    between atoms: _219  and  _220
REMARK   89  A    between atoms: _224  and  _226
REMARK   90  A    between atoms: _226  and  _227
REMARK   91  A    between atoms: _226  and  _229
REMARK   92  A    between atoms: _232  and  _234
REMARK   93  A    between atoms: _234  and  _235
REMARK   94  A    between atoms: _238  and  _240
REMARK   95  A    between atoms: _240  and  _241
REMARK   96  A    between atoms: _240  and  _243
REMARK   97  A    between atoms: _243  and  _244
REMARK   98  A    between atoms: _247  and  _249
REMARK   99  A    between atoms: _249  and  _250
REMARK  100  A    between atoms: _249  and  _252
REMARK  101  A    between atoms: _252  and  _253
REMARK  102  A    between atoms: _253  and  _254
REMARK  103  A    between atoms: _257  and  _259
REMARK  104  A    between atoms: _259  and  _260
REMARK  105  A    between atoms: _259  and  _262
REMARK  106  A    between atoms: _265  and  _267
REMARK  107  A    between atoms: _267  and  _268
REMARK  108  A    between atoms: _267  and  _270
REMARK  109  A    between atoms: _270  and  _271
REMARK  110  A    between atoms: _274  and  _276
REMARK  111  A    between atoms: _276  and  _277
REMARK  112  A    between atoms: _276  and  _279
REMARK  113  A    between atoms: _279  and  _280
REMARK  114  A    between atoms: _280  and  _281
REMARK  115  A    between atoms: _283  and  _285
REMARK  116  A    between atoms: _285  and  _286
REMARK  117  A    between atoms: _285  and  _288
REMARK  118  A    between atoms: _288  and  _289
REMARK  119  A    between atoms: _292  and  _294
REMARK  120  A    between atoms: _294  and  _295
REMARK  121  A    between atoms: _294  and  _297
REMARK  122  A    between atoms: _297  and  _298
REMARK  123  A    between atoms: _298  and  _299
REMARK  124  A    between atoms: _299  and  _300
REMARK  125  A    between atoms: _309  and  _311
REMARK  126  A    between atoms: _311  and  _312
REMARK  127  A    between atoms: _311  and  _314
REMARK  128  A    between atoms: _314  and  _315
REMARK  129  A    between atoms: _317  and  _319
REMARK  130  A    between atoms: _319  and  _320
REMARK  131  A    between atoms: _319  and  _322
REMARK  132  A    between atoms: _322  and  _323
REMARK  133  A    between atoms: _328  and  _330
REMARK  134  A    between atoms: _330  and  _331
REMARK  135  A    between atoms: _330  and  _333
REMARK  136  A    between atoms: _333  and  _334
REMARK  137  A    between atoms: _334  and  _335
REMARK  138  A    between atoms: _340  and  _342
REMARK  139  A    between atoms: _342  and  _343
REMARK  140  A    between atoms: _342  and  _345
REMARK  141  A    between atoms: _345  and  _346
REMARK  142  A    between atoms: _348  and  _350
REMARK  143  A    between atoms: _350  and  _351
REMARK  144  A    between atoms: _350  and  _353
REMARK  145  A    between atoms: _353  and  _354
REMARK  146  A    between atoms: _360  and  _362
REMARK  147  A    between atoms: _362  and  _363
REMARK  148  A    between atoms: _362  and  _365
REMARK  149  A    between atoms: _365  and  _366
REMARK  150  A    between atoms: _368  and  _370
REMARK  151  A    between atoms: _370  and  _371
REMARK  152  A    between atoms: _370  and  _373
REMARK  153  A    between atoms: _373  and  _374
REMARK  154  A    between atoms: _384  and  _386
REMARK  155  A    between atoms: _386  and  _387
REMARK  156  A    between atoms: _386  and  _389
REMARK  157  A    between atoms: _389  and  _390
REMARK  158  A    between atoms: _393  and  _395
REMARK  159  A    between atoms: _395  and  _396
REMARK  160  A    between atoms: _395  and  _398
REMARK  161  A    between atoms: _400  and  _402
REMARK  162  A    between atoms: _402  and  _403
REMARK  163  A    between atoms: _402  and  _405
REMARK  164  A    between atoms: _405  and  _406
REMARK  165  A    between atoms: _411  and  _412
REMARK  166  A    between atoms: _414  and  _416
REMARK  167  A    between atoms: _416  and  _417
REMARK  168  A    between atoms: _416  and  _419
REMARK  169  A    between atoms: _419  and  _420
REMARK  170  A    between atoms: _420  and  _421
REMARK  171  A    between atoms: _421  and  _422
REMARK  172  A    between atoms: _422  and  _423
REMARK  173  A    between atoms: _427  and  _429
REMARK  174  A    between atoms: _429  and  _430
REMARK  175  A    between atoms: _429  and  _432
REMARK  176  A    between atoms: _432  and  _433
REMARK  177  A    between atoms: _438  and  _439
REMARK  178  A    between atoms: _441  and  _443
REMARK  179  A    between atoms: _443  and  _444
REMARK  180  A    between atoms: _443  and  _446
REMARK  181  A    between atoms: _446  and  _447
REMARK  182  A    between atoms: _450  and  _452
REMARK  183  A    between atoms: _452  and  _453
REMARK  184  A    between atoms: _452  and  _455
REMARK  185  A    between atoms: _455  and  _456
REMARK  186  A    between atoms: _459  and  _461
REMARK  187  A    between atoms: _461  and  _462
REMARK  188  A    between atoms: _461  and  _464
REMARK  189  A    between atoms: _467  and  _469
REMARK  190  A    between atoms: _469  and  _470
REMARK  191  A    between atoms: _469  and  _472
REMARK  192  A    between atoms: _472  and  _473
REMARK  193  A    between atoms: _475  and  _477
REMARK  194  A    between atoms: _477  and  _478
REMARK  195  A    between atoms: _481  and  _483
REMARK  196  A    between atoms: _483  and  _484
REMARK  197  A    between atoms: _486  and  _488
REMARK  198  A    between atoms: _488  and  _489
REMARK  199  A    between atoms: _488  and  _491
REMARK  200  A    between atoms: _491  and  _492
REMARK  201  A    between atoms: _497  and  _499
REMARK  202  A    between atoms: _499  and  _500
REMARK  203  A    between atoms: _499  and  _502
REMARK  204  A    between atoms: _502  and  _503
REMARK  205  A    between atoms: _506  and  _508
REMARK  206  A    between atoms: _508  and  _509
REMARK  207  A    between atoms: _508  and  _511
REMARK  208  A    between atoms: _511  and  _512
REMARK  209  A    between atoms: _515  and  _517
REMARK  210  A    between atoms: _517  and  _518
REMARK  211  A    between atoms: _517  and  _520
REMARK  212  A    between atoms: _520  and  _521
REMARK  213  A    between atoms: _524  and  _526
REMARK  214  A    between atoms: _526  and  _527
REMARK  215  A    between atoms: _526  and  _529
REMARK  216  A    between atoms: _529  and  _530
REMARK  217  A    between atoms: _530  and  _531
REMARK  218  A    between atoms: _536  and  _538
REMARK  219  A    between atoms: _538  and  _539
REMARK  220  A    between atoms: _538  and  _541
REMARK  221  A    between atoms: _541  and  _542
REMARK  222  A    between atoms: _545  and  _547
REMARK  223  A    between atoms: _547  and  _548
REMARK  224  A    between atoms: _547  and  _550
REMARK  225  A    between atoms: _550  and  _551
REMARK  226  A    between atoms: _551  and  _552
REMARK  227  A    between atoms: _555  and  _557
REMARK  228  A    between atoms: _557  and  _558
REMARK  229  A    between atoms: _557  and  _560
REMARK  230  A    between atoms: _560  and  _561
REMARK  231  A    between atoms: _566  and  _568
REMARK  232  A    between atoms: _568  and  _569
REMARK  233  A    between atoms: _568  and  _571
REMARK  234  A    between atoms: _571  and  _572
REMARK  235  A    between atoms: _574  and  _576
REMARK  236  A    between atoms: _576  and  _577
REMARK  237  A    between atoms: _576  and  _579
REMARK  238  A    between atoms: _579  and  _580
REMARK  239  A    between atoms: _580  and  _581
REMARK  240  A    between atoms: _586  and  _588
REMARK  241  A    between atoms: _588  and  _589
REMARK  242  A    between atoms: _588  and  _591
REMARK  243  A    between atoms: _591  and  _592
REMARK  244  A    between atoms: _597  and  _598
REMARK  245  A    between atoms: _600  and  _602
REMARK  246  A    between atoms: _602  and  _603
REMARK  247  A    between atoms: _602  and  _605
REMARK  248  A    between atoms: _605  and  _606
REMARK  249  A    between atoms: _606  and  _607
REMARK  250  A    between atoms: _607  and  _608
REMARK  251  A    between atoms: _617  and  _619
REMARK  252  A    between atoms: _619  and  _620
REMARK  253  A    between atoms: _619  and  _622
REMARK  254  A    between atoms: _622  and  _623
REMARK  255  A    between atoms: _626  and  _628
REMARK  256  A    between atoms: _628  and  _629
REMARK  257  A    between atoms: _628  and  _631
REMARK  258  A    between atoms: _631  and  _632
REMARK  259  A    between atoms: _634  and  _636
REMARK  260  A    between atoms: _636  and  _637
REMARK  261  A    between atoms: _636  and  _639
REMARK  262  A    between atoms: _639  and  _640
REMARK  263  A    between atoms: _645  and  _647
REMARK  264  A    between atoms: _647  and  _648
REMARK  265  A    between atoms: _647  and  _650
REMARK  266  A    between atoms: _650  and  _651
REMARK  267  A    between atoms: _651  and  _652
REMARK  268  A    between atoms: _652  and  _653
REMARK  269  A    between atoms: _653  and  _654
REMARK  270  A    between atoms: _658  and  _660
REMARK  271  A    between atoms: _660  and  _661
REMARK  272  A    between atoms: _660  and  _663
REMARK  273  A    between atoms: _663  and  _664
REMARK  274  A    between atoms: _667  and  _669
REMARK  275  A    between atoms: _669  and  _670
REMARK  276  A    between atoms: _669  and  _672
REMARK  277  A    between atoms: _672  and  _673
REMARK  278  A    between atoms: _676  and  _678
REMARK  279  A    between atoms: _678  and  _679
REMARK  280  A    between atoms: _678  and  _681
REMARK  281  A    between atoms: _684  and  _686
REMARK  282  A    between atoms: _686  and  _687
REMARK  283  A    between atoms: _686  and  _689
REMARK  284  A    between atoms: _689  and  _690
REMARK                            x       y       z     vdW  Elec       q    Type
REMARK                         _______ _______ _______ _____ _____    ______ ____
ROOT
ATOM      1  CG  TYR A   1      62.447  12.774   3.696  0.00  0.00    -0.020 A 
ATOM      2  CD2 TYR A   1      62.000  11.442   3.782  0.00  0.00    -0.001 A 
ATOM      3  CE2 TYR A   1      60.669  11.103   3.583  0.00  0.00    +0.036 A 
ATOM      4  CZ  TYR A   1      59.735  12.092   3.296  0.00  0.00    +0.134 A 
ATOM      5  CE1 TYR A   1      60.141  13.440   3.203  0.00  0.00    +0.036 A 
ATOM      6  CD1 TYR A   1      61.496  13.771   3.411  0.00  0.00    -0.001 A 
ENDROOT
BRANCH   4   7
ATOM      7  OH  TYR A   1      58.410  11.734   3.109  0.00  0.00    -0.506 OA
ATOM      8  HH  TYR A   1      57.875  12.544   2.914  0.00  0.00    +0.292 HD
ENDBRANCH   4   7
BRANCH   1   9
ATOM      9  CB  TYR A   1      63.916  13.112   3.948  0.00  0.00    +0.051 C 
BRANCH   9  10
ATOM     10  CA  TYR A   1      64.339  12.927   5.425  0.00  0.00    +0.137 C 
BRANCH  10  11
ATOM     11  N   TYR A   1      63.382  13.617   6.283  0.00  0.00    -0.239 NA
ATOM     12  H   TYR A   1      62.766  13.061   6.910  0.00  0.00    +0.142 HD
ENDBRANCH  10  11
BRANCH  10  13
ATOM     13  C   TYR A   1      65.791  13.403   5.681  0.00  0.00    +0.224 C 
ATOM     14  O   TYR A   1      66.604  13.531   4.738  0.00  0.00    -0.287 OA
ENDBRANCH  10  13
ENDBRANCH   9  10
ENDBRANCH   1   9
TORSDOF 5
REMARK  Name = ../refined-set-2016/2o4j/2o4j_pocket.pdb
REMARK  284 active torsions:
REMARK  status: ('A' for Active; 'I' for Inactive)
REMARK    1  A    between atoms: _1  and  _3
REMARK    2  A    between atoms: _3  and  _4
REMARK    3  A    between atoms: _3  and  _6
REMARK    4  A    between atoms: _6  and  _7
REMARK    5  A    between atoms: _10  and  _12
REMARK    6  A    between atoms: _12  and  _13
REMARK    7  A    between atoms: _12  and  _15
REMARK    8  A    between atoms: _15  and  _16
REMARK    9  A    between atoms: _21  and  _22
REMARK   10  A    between atoms: _24  and  _26
REMARK   11  A    between atoms: _26  and  _27
REMARK   12  A    between atoms: _26  and  _29
REMARK   13  A    between atoms: _29  and  _30
REMARK   14  A    between atoms: _34  and  _35
REMARK   15  A    between atoms: _40  and  _42
REMARK   16  A    between atoms: _42  and  _43
REMARK   17  A    between atoms: _42  and  _45
REMARK   18  A    between atoms: _45  and  _46
REMARK   19  A    between atoms: _51  and  _52
REMARK   20  A    between atoms: _54  and  _56
REMARK   21  A    between atoms: _56  and  _57
REMARK   22  A    between atoms: _56  and  _59
REMARK   23  A    between atoms: _59  and  _60
REMARK   24  A    between atoms: _66  and  _68
REMARK   25  A    between atoms: _68  and  _69
REMARK   26  A    between atoms: _68  and  _71
REMARK   27  A    between atoms: _71  and  _72
REMARK   28  A    between atoms: _78  and  _80
REMARK   29  A    between atoms: _80  and  _81
REMARK   30  A    between atoms: _80  and  _83
REMARK   31  A    between atoms: _83  and  _84
REMARK   32  A    between atoms: _84  and  _85
REMARK   33  A    between atoms: _85  and  _86
REMARK   34  A    between atoms: _95  and  _97
REMARK   35  A    between atoms: _97  and  _98
REMARK   36  A    between atoms: _97  and  _100
REMARK   37  A    between atoms: _100  and  _101
REMARK   38  A    between atoms: _101  and  _102
REMARK   39  A    between atoms: _104  and  _106
REMARK   40  A    between atoms: _106  and  _107
REMARK   41  A    between atoms: _106  and  _109
REMARK   42  A    between atoms: _109  and  _110
REMARK   43  A    between atoms: _114  and  _115
REMARK   44  A    between atoms: _120  and  _122
REMARK   45  A    between atoms: _122  and  _123
REMARK   46  A    between atoms: _122  and  _125
REMARK   47  A    between atoms: _125  and  _126
REMARK   48  A    between atoms: _131  and  _133
REMARK   49  A    between atoms: _133  and  _134
REMARK   50  A    between atoms: _133  and  _136
REMARK   51  A    between atoms: _136  and  _137
REMARK   52  A    between atoms: _140  and  _142
REMARK   53  A    between atoms: _142  and  _143
REMARK   54  A    between atoms: _146  and  _148
REMARK   55  A    between atoms: _148  and  _149
REMARK   56  A    between atoms: _148  and  _151
REMARK   57  A    between atoms: _151  and  _152
REMARK   58  A    between atoms: _155  and  _157
REMARK   59  A    between atoms: _157  and  _158
REMARK   60  A    between atoms: _157  and  _160
REMARK   61  A    between atoms: _160  and  _161
REMARK   62  A    between atoms: _164  and  _166
REMARK   63  A    between atoms: _166  and  _167
REMARK   64  A    between atoms: _166  and  _169
REMARK   65  A    between atoms: _172  and  _174
REMARK   66  A    between atoms: _174  and  _175
REMARK   67  A    between atoms: _174  and  _177
REMARK   68  A    between atoms: _177  and  _178
REMARK   69  A    between atoms: _180  and  _182
REMARK   70  A    between atoms: _182  and  _183
REMARK   71  A    between atoms: _182  and  _185
REMARK   72  A    between atoms: _185  and  _186
REMARK   73  A    between atoms: _191  and  _192
REMARK   74  A    between atoms: _194  and  _196
REMARK   75  A    between atoms: _196  and  _197
REMARK   76  A    between atoms: _196  and  _199
REMARK   77  A    between atoms: _199  and  _200
REMARK   78  A    between atoms: _202  and  _204
REMARK   79  A    between atoms: _204  and  _205
REMARK   80  A    between atoms: _204  and  _207
REMARK   81  A    between atoms: _207  and  _208
REMARK   82  A    between atoms: _211  and  _213
REMARK   83  A    between atoms: _213  and  _214
REMARK   84  A    between atoms: _213  and  _216
REMARK   85  A    between atoms: _216  and  _217
REMARK   86  A    between atoms: _217  and  _218
REMARK   87  A    between atoms: _218  and  _219
REMARK   88  A    between atoms: _219  and  _220
REMARK   89  A    between atoms: _224  and  _226
REMARK   90  A    between atoms: _226  and  _227
REMARK   91  A    between atoms: _226  and  _229
REMARK   92  A    between atoms: _232  and  _234
REMARK   93  A    between atoms: _234  and  _235
REMARK   94  A    between atoms: _238  and  _240
REMARK   95  A    between atoms: _240  and  _241
REMARK   96  A    between atoms: _240  and  _243
REMARK   97  A    between atoms: _243  and  _244
REMARK   98  A    between atoms: _247  and  _249
REMARK   99  A    between atoms: _249  and  _250
REMARK  100  A    between atoms: _249  and  _252
REMARK  101  A    between atoms: _252  and  _253
REMARK  102  A    between atoms: _253  and  _254
REMARK  103  A    between atoms: _257  and  _259
REMARK  104  A    between atoms: _259  and  _260
REMARK  105  A    between atoms: _259  and  _262
REMARK  106  A    between atoms: _265  and  _267
REMARK  107  A    between atoms: _267  and  _268
REMARK  108  A    between atoms: _267  and  _270
REMARK  109  A    between atoms: _270  and  _271
REMARK  110  A    between atoms: _274  and  _276
REMARK  111  A    between atoms: _276  and  _277
REMARK  112  A    between atoms: _276  and  _279
REMARK  113  A    between atoms: _279  and  _280
REMARK  114  A    between atoms: _280  and  _281
REMARK  115  A    between atoms: _283  and  _285
REMARK  116  A    between atoms: _285  and  _286
REMARK  117  A    between atoms: _285  and  _288
REMARK  118  A    between atoms: _288  and  _289
REMARK  119  A    between atoms: _292  and  _294
REMARK  120  A    between atoms: _294  and  _295
REMARK  121  A    between atoms: _294  and  _297
REMARK  122  A    between atoms: _297  and  _298
REMARK  123  A    between atoms: _298  and  _299
REMARK  124  A    between atoms: _299  and  _300
REMARK  125  A    between atoms: _309  and  _311
REMARK  126  A    between atoms: _311  and  _312
REMARK  127  A    between atoms: _311  and  _314
REMARK  128  A    between atoms: _314  and  _315
REMARK  129  A    between atoms: _317  and  _319
REMARK  130  A    between atoms: _319  and  _320
REMARK  131  A    between atoms: _319  and  _322
REMARK  132  A    between atoms: _322  and  _323
REMARK  133  A    between atoms: _328  and  _330
REMARK  134  A    between atoms: _330  and  _331
REMARK  135  A    between atoms: _330  and  _333
REMARK  136  A    between atoms: _333  and  _334
REMARK  137  A    between atoms: _334  and  _335
REMARK  138  A    between atoms: _340  and  _342
REMARK  139  A    between atoms: _342  and  _343
REMARK  140  A    between atoms: _342  and  _345
REMARK  141  A    between atoms: _345  and  _346
REMARK  142  A    between atoms: _348  and  _350
REMARK  143  A    between atoms: _350  and  _351
REMARK  144  A    between atoms: _350  and  _353
REMARK  145  A    between atoms: _353  and  _354
REMARK  146  A    between atoms: _360  and  _362
REMARK  147  A    between atoms: _362  and  _363
REMARK  148  A    between atoms: _362  and  _365
REMARK  149  A    between atoms: _365  and  _366
REMARK  150  A    between atoms: _368  and  _370
REMARK  151  A    between atoms: _370  and  _371
REMARK  152  A    between atoms: _370  and  _373
REMARK  153  A    between atoms: _373  and  _374
REMARK  154  A    between atoms: _384  and  _386
REMARK  155  A    between atoms: _386  and  _387
REMARK  156  A    between atoms: _386  and  _389
REMARK  157  A    between atoms: _389  and  _390
REMARK  158  A    between atoms: _393  and  _395
REMARK  159  A    between atoms: _395  and  _396
REMARK  160  A    between atoms: _395  and  _398
REMARK  161  A    between atoms: _400  and  _402
REMARK  162  A    between atoms: _402  and  _403
REMARK  163  A    between atoms: _402  and  _405
REMARK  164  A    between atoms: _405  and  _406
REMARK  165  A    between atoms: _411  and  _412
REMARK  166  A    between atoms: _414  and  _416
REMARK  167  A    between atoms: _416  and  _417
REMARK  168  A    between atoms: _416  and  _419
REMARK  169  A    between atoms: _419  and  _420
REMARK  170  A    between atoms: _420  and  _421
REMARK  171  A    between atoms: _421  and  _422
REMARK  172  A    between atoms: _422  and  _423
REMARK  173  A    between atoms: _427  and  _429
REMARK  174  A    between atoms: _429  and  _430
REMARK  175  A    between atoms: _429  and  _432
REMARK  176  A    between atoms: _432  and  _433
REMARK  177  A    between atoms: _438  and  _439
REMARK  178  A    between atoms: _441  and  _443
REMARK  179  A    between atoms: _443  and  _444
REMARK  180  A    between atoms: _443  and  _446
REMARK  181  A    between atoms: _446  and  _447
REMARK  182  A    between atoms: _450  and  _452
REMARK  183  A    between atoms: _452  and  _453
REMARK  184  A    between atoms: _452  and  _455
REMARK  185  A    between atoms: _455  and  _456
REMARK  186  A    between atoms: _459  and  _461
REMARK  187  A    between atoms: _461  and  _462
REMARK  188  A    between atoms: _461  and  _464
REMARK  189  A    between atoms: _467  and  _469
REMARK  190  A    between atoms: _469  and  _470
REMARK  191  A    between atoms: _469  and  _472
REMARK  192  A    between atoms: _472  and  _473
REMARK  193  A    between atoms: _475  and  _477
REMARK  194  A    between atoms: _477  and  _478
REMARK  195  A    between atoms: _481  and  _483
REMARK  196  A    between atoms: _483  and  _484
REMARK  197  A    between atoms: _486  and  _488
REMARK  198  A    between atoms: _488  and  _489
REMARK  199  A    between atoms: _488  and  _491
REMARK  200  A    between atoms: _491  and  _492
REMARK  201  A    between atoms: _497  and  _499
REMARK  202  A    between atoms: _499  and  _500
REMARK  203  A    between atoms: _499  and  _502
REMARK  204  A    between atoms: _502  and  _503
REMARK  205  A    between atoms: _506  and  _508
REMARK  206  A    between atoms: _508  and  _509
REMARK  207  A    between atoms: _508  and  _511
REMARK  208  A    between atoms: _511  and  _512
REMARK  209  A    between atoms: _515  and  _517
REMARK  210  A    between atoms: _517  and  _518
REMARK  211  A    between atoms: _517  and  _520
REMARK  212  A    between atoms: _520  and  _521
REMARK  213  A    between atoms: _524  and  _526
REMARK  214  A    between atoms: _526  and  _527
REMARK  215  A    between atoms: _526  and  _529
REMARK  216  A    between atoms: _529  and  _530
REMARK  217  A    between atoms: _530  and  _531
REMARK  218  A    between atoms: _536  and  _538
REMARK  219  A    between atoms: _538  and  _539
REMARK  220  A    between atoms: _538  and  _541
REMARK  221  A    between atoms: _541  and  _542
REMARK  222  A    between atoms: _545  and  _547
REMARK  223  A    between atoms: _547  and  _548
REMARK  224  A    between atoms: _547  and  _550
REMARK  225  A    between atoms: _550  and  _551
REMARK  226  A    between atoms: _551  and  _552
REMARK  227  A    between atoms: _555  and  _557
REMARK  228  A    between atoms: _557  and  _558
REMARK  229  A    between atoms: _557  and  _560
REMARK  230  A    between atoms: _560  and  _561
REMARK  231  A    between atoms: _566  and  _568
REMARK  232  A    between atoms: _568  and  _569
REMARK  233  A    between atoms: _568  and  _571
REMARK  234  A    between atoms: _571  and  _572
REMARK  235  A    between atoms: _574  and  _576
REMARK  236  A    between atoms: _576  and  _577
REMARK  237  A    between atoms: _576  and  _579
REMARK  238  A    between atoms: _579  and  _580
REMARK  239  A    between atoms: _580  and  _581
REMARK  240  A    between atoms: _586  and  _588
REMARK  241  A    between atoms: _588  and  _589
REMARK  242  A    between atoms: _588  and  _591
REMARK  243  A    between atoms: _591  and  _592
REMARK  244  A    between atoms: _597  and  _598
REMARK  245  A    between atoms: _600  and  _602
REMARK  246  A    between atoms: _602  and  _603
REMARK  247  A    between atoms: _602  and  _605
REMARK  248  A    between atoms: _605  and  _606
REMARK  249  A    between atoms: _606  and  _607
REMARK  250  A    between atoms: _607  and  _608
REMARK  251  A    between atoms: _617  and  _619
REMARK  252  A    between atoms: _619  and  _620
REMARK  253  A    between atoms: _619  and  _622
REMARK  254  A    between atoms: _622  and  _623
REMARK  255  A    between atoms: _626  and  _628
REMARK  256  A    between atoms: _628  and  _629
REMARK  257  A    between atoms: _628  and  _631
REMARK  258  A    between atoms: _631  and  _632
REMARK  259  A    between atoms: _634  and  _636
REMARK  260  A    between atoms: _636  and  _637
REMARK  261  A    between atoms: _636  and  _639
REMARK  262  A    between atoms: _639  and  _640
REMARK  263  A    between atoms: _645  and  _647
REMARK  264  A    between atoms: _647  and  _648
REMARK  265  A    between atoms: _647  and  _650
REMARK  266  A    between atoms: _650  and  _651
REMARK  267  A    between atoms: _651  and  _652
REMARK  268  A    between atoms: _652  and  _653
REMARK  269  A    between atoms: _653  and  _654
REMARK  270  A    between atoms: _658  and  _660
REMARK  271  A    between atoms: _660  and  _661
REMARK  272  A    between atoms: _660  and  _663
REMARK  273  A    between atoms: _663  and  _664
REMARK  274  A    between atoms: _667  and  _669
REMARK  275  A    between atoms: _669  and  _670
REMARK  276  A    between atoms: _669  and  _672
REMARK  277  A    between atoms: _672  and  _673
REMARK  278  A    between atoms: _676  and  _678
REMARK  279  A    between atoms: _678  and  _679
REMARK  280  A    between atoms: _678  and  _681
REMARK  281  A    between atoms: _684  and  _686
REMARK  282  A    between atoms: _686  and  _687
REMARK  283  A    between atoms: _686  and  _689
REMARK  284  A    between atoms: _689  and  _690
REMARK                            x       y       z     vdW  Elec       q    Type
REMARK                         _______ _______ _______ _____ _____    ______ ____
ROOT
ATOM      1  CB  PHE A   1      68.348  11.841   2.289  0.00  0.00    +0.051 C 
ENDROOT
BRANCH   1   2
ATOM      2  CG  PHE A   1      67.065  11.052   2.140  0.00  0.00    -0.020 A 
ATOM      3  CD2 PHE A   1      66.580  10.260   3.176  0.00  0.00    -0.004 A 
ATOM      4  CE2 PHE A   1      65.388   9.528   3.038  0.00  0.00    -0.000 A 
ATOM      5  CZ  PHE A   1      64.675   9.583   1.848  0.00  0.00    -0.000 A 
ATOM      6  CE1 PHE A   1      65.146  10.353   0.799  0.00  0.00    -0.000 A 
ATOM      7  CD1 PHE A   1      66.344  11.096   0.944  0.00  0.00    -0.004 A 
ENDBRANCH   1   2
BRANCH   1   8
ATOM      8  CA  PHE A   1      69.393  11.197   3.214  0.00  0.00    +0.137 C 
BRANCH   8   9
ATOM      9  N   PHE A   1      69.049  11.373   4.634  0.00  0.00    -0.239 NA
ATOM     10  H   PHE A   1      68.221  11.947   4.890  0.00  0.00    +0.142 HD
ENDBRANCH   8   9
BRANCH   8  11
ATOM     11  C   PHE A   1      70.755  11.788   2.874  0.00  0.00    +0.224 C 
ATOM     12  O   PHE A   1      71.363  11.412   1.884  0.00  0.00    -0.287 OA
ENDBRANCH   8  11
ENDBRANCH   1   8
TORSDOF 4
REMARK  Name = ../refined-set-2016/2o4j/2o4j_pocket.pdb
REMARK  284 active torsions:
REMARK  status: ('A' for Active; 'I' for Inactive)
REMARK    1  A    between atoms: _1  and  _3
REMARK    2  A    between atoms: _3  and  _4
REMARK    3  A    between atoms: _3  and  _6
REMARK    4  A    between atoms: _6  and  _7
REMARK    5  A    between atoms: _10  and  _12
REMARK    6  A    between atoms: _12  and  _13
REMARK    7  A    between atoms: _12  and  _15
REMARK    8  A    between atoms: _15  and  _16
REMARK    9  A    between atoms: _21  and  _22
REMARK   10  A    between atoms: _24  and  _26
REMARK   11  A    between atoms: _26  and  _27
REMARK   12  A    between atoms: _26  and  _29
REMARK   13  A    between atoms: _29  and  _30
REMARK   14  A    between atoms: _34  and  _35
REMARK   15  A    between atoms: _40  and  _42
REMARK   16  A    between atoms: _42  and  _43
REMARK   17  A    between atoms: _42  and  _45
REMARK   18  A    between atoms: _45  and  _46
REMARK   19  A    between atoms: _51  and  _52
REMARK   20  A    between atoms: _54  and  _56
REMARK   21  A    between atoms: _56  and  _57
REMARK   22  A    between atoms: _56  and  _59
REMARK   23  A    between atoms: _59  and  _60
REMARK   24  A    between atoms: _66  and  _68
REMARK   25  A    between atoms: _68  and  _69
REMARK   26  A    between atoms: _68  and  _71
REMARK   27  A    between atoms: _71  and  _72
REMARK   28  A    between atoms: _78  and  _80
REMARK   29  A    between atoms: _80  and  _81
REMARK   30  A    between atoms: _80  and  _83
REMARK   31  A    between atoms: _83  and  _84
REMARK   32  A    between atoms: _84  and  _85
REMARK   33  A    between atoms: _85  and  _86
REMARK   34  A    between atoms: _95  and  _97
REMARK   35  A    between atoms: _97  and  _98
REMARK   36  A    between atoms: _97  and  _100
REMARK   37  A    between atoms: _100  and  _101
REMARK   38  A    between atoms: _101  and  _102
REMARK   39  A    between atoms: _104  and  _106
REMARK   40  A    between atoms: _106  and  _107
REMARK   41  A    between atoms: _106  and  _109
REMARK   42  A    between atoms: _109  and  _110
REMARK   43  A    between atoms: _114  and  _115
REMARK   44  A    between atoms: _120  and  _122
REMARK   45  A    between atoms: _122  and  _123
REMARK   46  A    between atoms: _122  and  _125
REMARK   47  A    between atoms: _125  and  _126
REMARK   48  A    between atoms: _131  and  _133
REMARK   49  A    between atoms: _133  and  _134
REMARK   50  A    between atoms: _133  and  _136
REMARK   51  A    between atoms: _136  and  _137
REMARK   52  A    between atoms: _140  and  _142
REMARK   53  A    between atoms: _142  and  _143
REMARK   54  A    between atoms: _146  and  _148
REMARK   55  A    between atoms: _148  and  _149
REMARK   56  A    between atoms: _148  and  _151
REMARK   57  A    between atoms: _151  and  _152
REMARK   58  A    between atoms: _155  and  _157
REMARK   59  A    between atoms: _157  and  _158
REMARK   60  A    between atoms: _157  and  _160
REMARK   61  A    between atoms: _160  and  _161
REMARK   62  A    between atoms: _164  and  _166
REMARK   63  A    between atoms: _166  and  _167
REMARK   64  A    between atoms: _166  and  _169
REMARK   65  A    between atoms: _172  and  _174
REMARK   66  A    between atoms: _174  and  _175
REMARK   67  A    between atoms: _174  and  _177
REMARK   68  A    between atoms: _177  and  _178
REMARK   69  A    between atoms: _180  and  _182
REMARK   70  A    between atoms: _182  and  _183
REMARK   71  A    between atoms: _182  and  _185
REMARK   72  A    between atoms: _185  and  _186
REMARK   73  A    between atoms: _191  and  _192
REMARK   74  A    between atoms: _194  and  _196
REMARK   75  A    between atoms: _196  and  _197
REMARK   76  A    between atoms: _196  and  _199
REMARK   77  A    between atoms: _199  and  _200
REMARK   78  A    between atoms: _202  and  _204
REMARK   79  A    between atoms: _204  and  _205
REMARK   80  A    between atoms: _204  and  _207
REMARK   81  A    between atoms: _207  and  _208
REMARK   82  A    between atoms: _211  and  _213
REMARK   83  A    between atoms: _213  and  _214
REMARK   84  A    between atoms: _213  and  _216
REMARK   85  A    between atoms: _216  and  _217
REMARK   86  A    between atoms: _217  and  _218
REMARK   87  A    between atoms: _218  and  _219
REMARK   88  A    between atoms: _219  and  _220
REMARK   89  A    between atoms: _224  and  _226
REMARK   90  A    between atoms: _226  and  _227
REMARK   91  A    between atoms: _226  and  _229
REMARK   92  A    between atoms: _232  and  _234
REMARK   93  A    between atoms: _234  and  _235
REMARK   94  A    between atoms: _238  and  _240
REMARK   95  A    between atoms: _240  and  _241
REMARK   96  A    between atoms: _240  and  _243
REMARK   97  A    between atoms: _243  and  _244
REMARK   98  A    between atoms: _247  and  _249
REMARK   99  A    between atoms: _249  and  _250
REMARK  100  A    between atoms: _249  and  _252
REMARK  101  A    between atoms: _252  and  _253
REMARK  102  A    between atoms: _253  and  _254
REMARK  103  A    between atoms: _257  and  _259
REMARK  104  A    between atoms: _259  and  _260
REMARK  105  A    between atoms: _259  and  _262
REMARK  106  A    between atoms: _265  and  _267
REMARK  107  A    between atoms: _267  and  _268
REMARK  108  A    between atoms: _267  and  _270
REMARK  109  A    between atoms: _270  and  _271
REMARK  110  A    between atoms: _274  and  _276
REMARK  111  A    between atoms: _276  and  _277
REMARK  112  A    between atoms: _276  and  _279
REMARK  113  A    between atoms: _279  and  _280
REMARK  114  A    between atoms: _280  and  _281
REMARK  115  A    between atoms: _283  and  _285
REMARK  116  A    between atoms: _285  and  _286
REMARK  117  A    between atoms: _285  and  _288
REMARK  118  A    between atoms: _288  and  _289
REMARK  119  A    between atoms: _292  and  _294
REMARK  120  A    between atoms: _294  and  _295
REMARK  121  A    between atoms: _294  and  _297
REMARK  122  A    between atoms: _297  and  _298
REMARK  123  A    between atoms: _298  and  _299
REMARK  124  A    between atoms: _299  and  _300
REMARK  125  A    between atoms: _309  and  _311
REMARK  126  A    between atoms: _311  and  _312
REMARK  127  A    between atoms: _311  and  _314
REMARK  128  A    between atoms: _314  and  _315
REMARK  129  A    between atoms: _317  and  _319
REMARK  130  A    between atoms: _319  and  _320
REMARK  131  A    between atoms: _319  and  _322
REMARK  132  A    between atoms: _322  and  _323
REMARK  133  A    between atoms: _328  and  _330
REMARK  134  A    between atoms: _330  and  _331
REMARK  135  A    between atoms: _330  and  _333
REMARK  136  A    between atoms: _333  and  _334
REMARK  137  A    between atoms: _334  and  _335
REMARK  138  A    between atoms: _340  and  _342
REMARK  139  A    between atoms: _342  and  _343
REMARK  140  A    between atoms: _342  and  _345
REMARK  141  A    between atoms: _345  and  _346
REMARK  142  A    between atoms: _348  and  _350
REMARK  143  A    between atoms: _350  and  _351
REMARK  144  A    between atoms: _350  and  _353
REMARK  145  A    between atoms: _353  and  _354
REMARK  146  A    between atoms: _360  and  _362
REMARK  147  A    between atoms: _362  and  _363
REMARK  148  A    between atoms: _362  and  _365
REMARK  149  A    between atoms: _365  and  _366
REMARK  150  A    between atoms: _368  and  _370
REMARK  151  A    between atoms: _370  and  _371
REMARK  152  A    between atoms: _370  and  _373
REMARK  153  A    between atoms: _373  and  _374
REMARK  154  A    between atoms: _384  and  _386
REMARK  155  A    between atoms: _386  and  _387
REMARK  156  A    between atoms: _386  and  _389
REMARK  157  A    between atoms: _389  and  _390
REMARK  158  A    between atoms: _393  and  _395
REMARK  159  A    between atoms: _395  and  _396
REMARK  160  A    between atoms: _395  and  _398
REMARK  161  A    between atoms: _400  and  _402
REMARK  162  A    between atoms: _402  and  _403
REMARK  163  A    between atoms: _402  and  _405
REMARK  164  A    between atoms: _405  and  _406
REMARK  165  A    between atoms: _411  and  _412
REMARK  166  A    between atoms: _414  and  _416
REMARK  167  A    between atoms: _416  and  _417
REMARK  168  A    between atoms: _416  and  _419
REMARK  169  A    between atoms: _419  and  _420
REMARK  170  A    between atoms: _420  and  _421
REMARK  171  A    between atoms: _421  and  _422
REMARK  172  A    between atoms: _422  and  _423
REMARK  173  A    between atoms: _427  and  _429
REMARK  174  A    between atoms: _429  and  _430
REMARK  175  A    between atoms: _429  and  _432
REMARK  176  A    between atoms: _432  and  _433
REMARK  177  A    between atoms: _438  and  _439
REMARK  178  A    between atoms: _441  and  _443
REMARK  179  A    between atoms: _443  and  _444
REMARK  180  A    between atoms: _443  and  _446
REMARK  181  A    between atoms: _446  and  _447
REMARK  182  A    between atoms: _450  and  _452
REMARK  183  A    between atoms: _452  and  _453
REMARK  184  A    between atoms: _452  and  _455
REMARK  185  A    between atoms: _455  and  _456
REMARK  186  A    between atoms: _459  and  _461
REMARK  187  A    between atoms: _461  and  _462
REMARK  188  A    between atoms: _461  and  _464
REMARK  189  A    between atoms: _467  and  _469
REMARK  190  A    between atoms: _469  and  _470
REMARK  191  A    between atoms: _469  and  _472
REMARK  192  A    between atoms: _472  and  _473
REMARK  193  A    between atoms: _475  and  _477
REMARK  194  A    between atoms: _477  and  _478
REMARK  195  A    between atoms: _481  and  _483
REMARK  196  A    between atoms: _483  and  _484
REMARK  197  A    between atoms: _486  and  _488
REMARK  198  A    between atoms: _488  and  _489
REMARK  199  A    between atoms: _488  and  _491
REMARK  200  A    between atoms: _491  and  _492
REMARK  201  A    between atoms: _497  and  _499
REMARK  202  A    between atoms: _499  and  _500
REMARK  203  A    between atoms: _499  and  _502
REMARK  204  A    between atoms: _502  and  _503
REMARK  205  A    between atoms: _506  and  _508
REMARK  206  A    between atoms: _508  and  _509
REMARK  207  A    between atoms: _508  and  _511
REMARK  208  A    between atoms: _511  and  _512
REMARK  209  A    between atoms: _515  and  _517
REMARK  210  A    between atoms: _517  and  _518
REMARK  211  A    between atoms: _517  and  _520
REMARK  212  A    between atoms: _520  and  _521
REMARK  213  A    between atoms: _524  and  _526
REMARK  214  A    between atoms: _526  and  _527
REMARK  215  A    between atoms: _526  and  _529
REMARK  216  A    between atoms: _529  and  _530
REMARK  217  A    between atoms: _530  and  _531
REMARK  218  A    between atoms: _536  and  _538
REMARK  219  A    between atoms: _538  and  _539
REMARK  220  A    between atoms: _538  and  _541
REMARK  221  A    between atoms: _541  and  _542
REMARK  222  A    between atoms: _545  and  _547
REMARK  223  A    between atoms: _547  and  _548
REMARK  224  A    between atoms: _547  and  _550
REMARK  225  A    between atoms: _550  and  _551
REMARK  226  A    between atoms: _551  and  _552
REMARK  227  A    between atoms: _555  and  _557
REMARK  228  A    between atoms: _557  and  _558
REMARK  229  A    between atoms: _557  and  _560
REMARK  230  A    between atoms: _560  and  _561
REMARK  231  A    between atoms: _566  and  _568
REMARK  232  A    between atoms: _568  and  _569
REMARK  233  A    between atoms: _568  and  _571
REMARK  234  A    between atoms: _571  and  _572
REMARK  235  A    between atoms: _574  and  _576
REMARK  236  A    between atoms: _576  and  _577
REMARK  237  A    between atoms: _576  and  _579
REMARK  238  A    between atoms: _579  and  _580
REMARK  239  A    between atoms: _580  and  _581
REMARK  240  A    between atoms: _586  and  _588
REMARK  241  A    between atoms: _588  and  _589
REMARK  242  A    between atoms: _588  and  _591
REMARK  243  A    between atoms: _591  and  _592
REMARK  244  A    between atoms: _597  and  _598
REMARK  245  A    between atoms: _600  and  _602
REMARK  246  A    between atoms: _602  and  _603
REMARK  247  A    between atoms: _602  and  _605
REMARK  248  A    between atoms: _605  and  _606
REMARK  249  A    between atoms: _606  and  _607
REMARK  250  A    between atoms: _607  and  _608
REMARK  251  A    between atoms: _617  and  _619
REMARK  252  A    between atoms: _619  and  _620
REMARK  253  A    between atoms: _619  and  _622
REMARK  254  A    between atoms: _622  and  _623
REMARK  255  A    between atoms: _626  and  _628
REMARK  256  A    between atoms: _628  and  _629
REMARK  257  A    between atoms: _628  and  _631
REMARK  258  A    between atoms: _631  and  _632
REMARK  259  A    between atoms: _634  and  _636
REMARK  260  A    between atoms: _636  and  _637
REMARK  261  A    between atoms: _636  and  _639
REMARK  262  A    between atoms: _639  and  _640
REMARK  263  A    between atoms: _645  and  _647
REMARK  264  A    between atoms: _647  and  _648
REMARK  265  A    between atoms: _647  and  _650
REMARK  266  A    between atoms: _650  and  _651
REMARK  267  A    between atoms: _651  and  _652
REMARK  268  A    between atoms: _652  and  _653
REMARK  269  A    between atoms: _653  and  _654
REMARK  270  A    between atoms: _658  and  _660
REMARK  271  A    between atoms: _660  and  _661
REMARK  272  A    between atoms: _660  and  _663
REMARK  273  A    between atoms: _663  and  _664
REMARK  274  A    between atoms: _667  and  _669
REMARK  275  A    between atoms: _669  and  _670
REMARK  276  A    between atoms: _669  and  _672
REMARK  277  A    between atoms: _672  and  _673
REMARK  278  A    between atoms: _676  and  _678
REMARK  279  A    between atoms: _678  and  _679
REMARK  280  A    between atoms: _678  and  _681
REMARK  281  A    between atoms: _684  and  _686
REMARK  282  A    between atoms: _686  and  _687
REMARK  283  A    between atoms: _686  and  _689
REMARK  284  A    between atoms: _689  and  _690
REMARK                            x       y       z     vdW  Elec       q    Type
REMARK                         _______ _______ _______ _____ _____    ______ ____
ROOT
ATOM      1  CB  PHE A   1      72.324   8.296   0.509  0.00  0.00    +0.051 C 
ENDROOT
BRANCH   1   2
ATOM      2  CG  PHE A   1      71.129   7.928   1.366  0.00  0.00    -0.020 A 
ATOM      3  CD2 PHE A   1      71.266   7.344   2.620  0.00  0.00    -0.004 A 
ATOM      4  CE2 PHE A   1      70.130   7.013   3.365  0.00  0.00    -0.000 A 
ATOM      5  CZ  PHE A   1      68.860   7.276   2.858  0.00  0.00    -0.000 A 
ATOM      6  CE1 PHE A   1      68.715   7.828   1.629  0.00  0.00    -0.000 A 
ATOM      7  CD1 PHE A   1      69.840   8.164   0.880  0.00  0.00    -0.004 A 
ENDBRANCH   1   2
BRANCH   1   8
ATOM      8  CA  PHE A   1      73.664   8.393   1.249  0.00  0.00    +0.137 C 
BRANCH   8   9
ATOM      9  N   PHE A   1      73.608   9.273   2.440  0.00  0.00    -0.239 NA
ATOM     10  H   PHE A   1      72.832   9.958   2.536  0.00  0.00    +0.142 HD
ENDBRANCH   8   9
BRANCH   8  11
ATOM     11  C   PHE A   1      74.717   8.862   0.227  0.00  0.00    +0.224 C 
ATOM     12  O   PHE A   1      75.041  10.056   0.146  0.00  0.00    -0.287 OA
ENDBRANCH   8  11
ENDBRANCH   1   8
TORSDOF 4
REMARK  Name = ../refined-set-2016/2o4j/2o4j_pocket.pdb
REMARK  284 active torsions:
REMARK  status: ('A' for Active; 'I' for Inactive)
REMARK    1  A    between atoms: _1  and  _3
REMARK    2  A    between atoms: _3  and  _4
REMARK    3  A    between atoms: _3  and  _6
REMARK    4  A    between atoms: _6  and  _7
REMARK    5  A    between atoms: _10  and  _12
REMARK    6  A    between atoms: _12  and  _13
REMARK    7  A    between atoms: _12  and  _15
REMARK    8  A    between atoms: _15  and  _16
REMARK    9  A    between atoms: _21  and  _22
REMARK   10  A    between atoms: _24  and  _26
REMARK   11  A    between atoms: _26  and  _27
REMARK   12  A    between atoms: _26  and  _29
REMARK   13  A    between atoms: _29  and  _30
REMARK   14  A    between atoms: _34  and  _35
REMARK   15  A    between atoms: _40  and  _42
REMARK   16  A    between atoms: _42  and  _43
REMARK   17  A    between atoms: _42  and  _45
REMARK   18  A    between atoms: _45  and  _46
REMARK   19  A    between atoms: _51  and  _52
REMARK   20  A    between atoms: _54  and  _56
REMARK   21  A    between atoms: _56  and  _57
REMARK   22  A    between atoms: _56  and  _59
REMARK   23  A    between atoms: _59  and  _60
REMARK   24  A    between atoms: _66  and  _68
REMARK   25  A    between atoms: _68  and  _69
REMARK   26  A    between atoms: _68  and  _71
REMARK   27  A    between atoms: _71  and  _72
REMARK   28  A    between atoms: _78  and  _80
REMARK   29  A    between atoms: _80  and  _81
REMARK   30  A    between atoms: _80  and  _83
REMARK   31  A    between atoms: _83  and  _84
REMARK   32  A    between atoms: _84  and  _85
REMARK   33  A    between atoms: _85  and  _86
REMARK   34  A    between atoms: _95  and  _97
REMARK   35  A    between atoms: _97  and  _98
REMARK   36  A    between atoms: _97  and  _100
REMARK   37  A    between atoms: _100  and  _101
REMARK   38  A    between atoms: _101  and  _102
REMARK   39  A    between atoms: _104  and  _106
REMARK   40  A    between atoms: _106  and  _107
REMARK   41  A    between atoms: _106  and  _109
REMARK   42  A    between atoms: _109  and  _110
REMARK   43  A    between atoms: _114  and  _115
REMARK   44  A    between atoms: _120  and  _122
REMARK   45  A    between atoms: _122  and  _123
REMARK   46  A    between atoms: _122  and  _125
REMARK   47  A    between atoms: _125  and  _126
REMARK   48  A    between atoms: _131  and  _133
REMARK   49  A    between atoms: _133  and  _134
REMARK   50  A    between atoms: _133  and  _136
REMARK   51  A    between atoms: _136  and  _137
REMARK   52  A    between atoms: _140  and  _142
REMARK   53  A    between atoms: _142  and  _143
REMARK   54  A    between atoms: _146  and  _148
REMARK   55  A    between atoms: _148  and  _149
REMARK   56  A    between atoms: _148  and  _151
REMARK   57  A    between atoms: _151  and  _152
REMARK   58  A    between atoms: _155  and  _157
REMARK   59  A    between atoms: _157  and  _158
REMARK   60  A    between atoms: _157  and  _160
REMARK   61  A    between atoms: _160  and  _161
REMARK   62  A    between atoms: _164  and  _166
REMARK   63  A    between atoms: _166  and  _167
REMARK   64  A    between atoms: _166  and  _169
REMARK   65  A    between atoms: _172  and  _174
REMARK   66  A    between atoms: _174  and  _175
REMARK   67  A    between atoms: _174  and  _177
REMARK   68  A    between atoms: _177  and  _178
REMARK   69  A    between atoms: _180  and  _182
REMARK   70  A    between atoms: _182  and  _183
REMARK   71  A    between atoms: _182  and  _185
REMARK   72  A    between atoms: _185  and  _186
REMARK   73  A    between atoms: _191  and  _192
REMARK   74  A    between atoms: _194  and  _196
REMARK   75  A    between atoms: _196  and  _197
REMARK   76  A    between atoms: _196  and  _199
REMARK   77  A    between atoms: _199  and  _200
REMARK   78  A    between atoms: _202  and  _204
REMARK   79  A    between atoms: _204  and  _205
REMARK   80  A    between atoms: _204  and  _207
REMARK   81  A    between atoms: _207  and  _208
REMARK   82  A    between atoms: _211  and  _213
REMARK   83  A    between atoms: _213  and  _214
REMARK   84  A    between atoms: _213  and  _216
REMARK   85  A    between atoms: _216  and  _217
REMARK   86  A    between atoms: _217  and  _218
REMARK   87  A    between atoms: _218  and  _219
REMARK   88  A    between atoms: _219  and  _220
REMARK   89  A    between atoms: _224  and  _226
REMARK   90  A    between atoms: _226  and  _227
REMARK   91  A    between atoms: _226  and  _229
REMARK   92  A    between atoms: _232  and  _234
REMARK   93  A    between atoms: _234  and  _235
REMARK   94  A    between atoms: _238  and  _240
REMARK   95  A    between atoms: _240  and  _241
REMARK   96  A    between atoms: _240  and  _243
REMARK   97  A    between atoms: _243  and  _244
REMARK   98  A    between atoms: _247  and  _249
REMARK   99  A    between atoms: _249  and  _250
REMARK  100  A    between atoms: _249  and  _252
REMARK  101  A    between atoms: _252  and  _253
REMARK  102  A    between atoms: _253  and  _254
REMARK  103  A    between atoms: _257  and  _259
REMARK  104  A    between atoms: _259  and  _260
REMARK  105  A    between atoms: _259  and  _262
REMARK  106  A    between atoms: _265  and  _267
REMARK  107  A    between atoms: _267  and  _268
REMARK  108  A    between atoms: _267  and  _270
REMARK  109  A    between atoms: _270  and  _271
REMARK  110  A    between atoms: _274  and  _276
REMARK  111  A    between atoms: _276  and  _277
REMARK  112  A    between atoms: _276  and  _279
REMARK  113  A    between atoms: _279  and  _280
REMARK  114  A    between atoms: _280  and  _281
REMARK  115  A    between atoms: _283  and  _285
REMARK  116  A    between atoms: _285  and  _286
REMARK  117  A    between atoms: _285  and  _288
REMARK  118  A    between atoms: _288  and  _289
REMARK  119  A    between atoms: _292  and  _294
REMARK  120  A    between atoms: _294  and  _295
REMARK  121  A    between atoms: _294  and  _297
REMARK  122  A    between atoms: _297  and  _298
REMARK  123  A    between atoms: _298  and  _299
REMARK  124  A    between atoms: _299  and  _300
REMARK  125  A    between atoms: _309  and  _311
REMARK  126  A    between atoms: _311  and  _312
REMARK  127  A    between atoms: _311  and  _314
REMARK  128  A    between atoms: _314  and  _315
REMARK  129  A    between atoms: _317  and  _319
REMARK  130  A    between atoms: _319  and  _320
REMARK  131  A    between atoms: _319  and  _322
REMARK  132  A    between atoms: _322  and  _323
REMARK  133  A    between atoms: _328  and  _330
REMARK  134  A    between atoms: _330  and  _331
REMARK  135  A    between atoms: _330  and  _333
REMARK  136  A    between atoms: _333  and  _334
REMARK  137  A    between atoms: _334  and  _335
REMARK  138  A    between atoms: _340  and  _342
REMARK  139  A    between atoms: _342  and  _343
REMARK  140  A    between atoms: _342  and  _345
REMARK  141  A    between atoms: _345  and  _346
REMARK  142  A    between atoms: _348  and  _350
REMARK  143  A    between atoms: _350  and  _351
REMARK  144  A    between atoms: _350  and  _353
REMARK  145  A    between atoms: _353  and  _354
REMARK  146  A    between atoms: _360  and  _362
REMARK  147  A    between atoms: _362  and  _363
REMARK  148  A    between atoms: _362  and  _365
REMARK  149  A    between atoms: _365  and  _366
REMARK  150  A    between atoms: _368  and  _370
REMARK  151  A    between atoms: _370  and  _371
REMARK  152  A    between atoms: _370  and  _373
REMARK  153  A    between atoms: _373  and  _374
REMARK  154  A    between atoms: _384  and  _386
REMARK  155  A    between atoms: _386  and  _387
REMARK  156  A    between atoms: _386  and  _389
REMARK  157  A    between atoms: _389  and  _390
REMARK  158  A    between atoms: _393  and  _395
REMARK  159  A    between atoms: _395  and  _396
REMARK  160  A    between atoms: _395  and  _398
REMARK  161  A    between atoms: _400  and  _402
REMARK  162  A    between atoms: _402  and  _403
REMARK  163  A    between atoms: _402  and  _405
REMARK  164  A    between atoms: _405  and  _406
REMARK  165  A    between atoms: _411  and  _412
REMARK  166  A    between atoms: _414  and  _416
REMARK  167  A    between atoms: _416  and  _417
REMARK  168  A    between atoms: _416  and  _419
REMARK  169  A    between atoms: _419  and  _420
REMARK  170  A    between atoms: _420  and  _421
REMARK  171  A    between atoms: _421  and  _422
REMARK  172  A    between atoms: _422  and  _423
REMARK  173  A    between atoms: _427  and  _429
REMARK  174  A    between atoms: _429  and  _430
REMARK  175  A    between atoms: _429  and  _432
REMARK  176  A    between atoms: _432  and  _433
REMARK  177  A    between atoms: _438  and  _439
REMARK  178  A    between atoms: _441  and  _443
REMARK  179  A    between atoms: _443  and  _444
REMARK  180  A    between atoms: _443  and  _446
REMARK  181  A    between atoms: _446  and  _447
REMARK  182  A    between atoms: _450  and  _452
REMARK  183  A    between atoms: _452  and  _453
REMARK  184  A    between atoms: _452  and  _455
REMARK  185  A    between atoms: _455  and  _456
REMARK  186  A    between atoms: _459  and  _461
REMARK  187  A    between atoms: _461  and  _462
REMARK  188  A    between atoms: _461  and  _464
REMARK  189  A    between atoms: _467  and  _469
REMARK  190  A    between atoms: _469  and  _470
REMARK  191  A    between atoms: _469  and  _472
REMARK  192  A    between atoms: _472  and  _473
REMARK  193  A    between atoms: _475  and  _477
REMARK  194  A    between atoms: _477  and  _478
REMARK  195  A    between atoms: _481  and  _483
REMARK  196  A    between atoms: _483  and  _484
REMARK  197  A    between atoms: _486  and  _488
REMARK  198  A    between atoms: _488  and  _489
REMARK  199  A    between atoms: _488  and  _491
REMARK  200  A    between atoms: _491  and  _492
REMARK  201  A    between atoms: _497  and  _499
REMARK  202  A    between atoms: _499  and  _500
REMARK  203  A    between atoms: _499  and  _502
REMARK  204  A    between atoms: _502  and  _503
REMARK  205  A    between atoms: _506  and  _508
REMARK  206  A    between atoms: _508  and  _509
REMARK  207  A    between atoms: _508  and  _511
REMARK  208  A    between atoms: _511  and  _512
REMARK  209  A    between atoms: _515  and  _517
REMARK  210  A    between atoms: _517  and  _518
REMARK  211  A    between atoms: _517  and  _520
REMARK  212  A    between atoms: _520  and  _521
REMARK  213  A    between atoms: _524  and  _526
REMARK  214  A    between atoms: _526  and  _527
REMARK  215  A    between atoms: _526  and  _529
REMARK  216  A    between atoms: _529  and  _530
REMARK  217  A    between atoms: _530  and  _531
REMARK  218  A    between atoms: _536  and  _538
REMARK  219  A    between atoms: _538  and  _539
REMARK  220  A    between atoms: _538  and  _541
REMARK  221  A    between atoms: _541  and  _542
REMARK  222  A    between atoms: _545  and  _547
REMARK  223  A    between atoms: _547  and  _548
REMARK  224  A    between atoms: _547  and  _550
REMARK  225  A    between atoms: _550  and  _551
REMARK  226  A    between atoms: _551  and  _552
REMARK  227  A    between atoms: _555  and  _557
REMARK  228  A    between atoms: _557  and  _558
REMARK  229  A    between atoms: _557  and  _560
REMARK  230  A    between atoms: _560  and  _561
REMARK  231  A    between atoms: _566  and  _568
REMARK  232  A    between atoms: _568  and  _569
REMARK  233  A    between atoms: _568  and  _571
REMARK  234  A    between atoms: _571  and  _572
REMARK  235  A    between atoms: _574  and  _576
REMARK  236  A    between atoms: _576  and  _577
REMARK  237  A    between atoms: _576  and  _579
REMARK  238  A    between atoms: _579  and  _580
REMARK  239  A    between atoms: _580  and  _581
REMARK  240  A    between atoms: _586  and  _588
REMARK  241  A    between atoms: _588  and  _589
REMARK  242  A    between atoms: _588  and  _591
REMARK  243  A    between atoms: _591  and  _592
REMARK  244  A    between atoms: _597  and  _598
REMARK  245  A    between atoms: _600  and  _602
REMARK  246  A    between atoms: _602  and  _603
REMARK  247  A    between atoms: _602  and  _605
REMARK  248  A    between atoms: _605  and  _606
REMARK  249  A    between atoms: _606  and  _607
REMARK  250  A    between atoms: _607  and  _608
REMARK  251  A    between atoms: _617  and  _619
REMARK  252  A    between atoms: _619  and  _620
REMARK  253  A    between atoms: _619  and  _622
REMARK  254  A    between atoms: _622  and  _623
REMARK  255  A    between atoms: _626  and  _628
REMARK  256  A    between atoms: _628  and  _629
REMARK  257  A    between atoms: _628  and  _631
REMARK  258  A    between atoms: _631  and  _632
REMARK  259  A    between atoms: _634  and  _636
REMARK  260  A    between atoms: _636  and  _637
REMARK  261  A    between atoms: _636  and  _639
REMARK  262  A    between atoms: _639  and  _640
REMARK  263  A    between atoms: _645  and  _647
REMARK  264  A    between atoms: _647  and  _648
REMARK  265  A    between atoms: _647  and  _650
REMARK  266  A    between atoms: _650  and  _651
REMARK  267  A    between atoms: _651  and  _652
REMARK  268  A    between atoms: _652  and  _653
REMARK  269  A    between atoms: _653  and  _654
REMARK  270  A    between atoms: _658  and  _660
REMARK  271  A    between atoms: _660  and  _661
REMARK  272  A    between atoms: _660  and  _663
REMARK  273  A    between atoms: _663  and  _664
REMARK  274  A    between atoms: _667  and  _669
REMARK  275  A    between atoms: _669  and  _670
REMARK  276  A    between atoms: _669  and  _672
REMARK  277  A    between atoms: _672  and  _673
REMARK  278  A    between atoms: _676  and  _678
REMARK  279  A    between atoms: _678  and  _679
REMARK  280  A    between atoms: _678  and  _681
REMARK  281  A    between atoms: _684  and  _686
REMARK  282  A    between atoms: _686  and  _687
REMARK  283  A    between atoms: _686  and  _689
REMARK  284  A    between atoms: _689  and  _690
REMARK                            x       y       z     vdW  Elec       q    Type
REMARK                         _______ _______ _______ _____ _____    ______ ____
ROOT
ATOM      1  NE  ARG A   1      67.966  13.605  -9.689  0.00  0.00    -0.265 N 
ATOM      2  CZ  ARG A   1      68.087  13.738  -8.371  0.00  0.00    +0.342 C 
ATOM      3  NH2 ARG A   1      67.221  13.144  -7.558  0.00  0.00    -0.292 N 
ATOM      4 HH21 ARG A   1      67.318  13.250  -6.528  0.00  0.00    +0.255 HD
ATOM      5 HH22 ARG A   1      66.446  12.573  -7.951  0.00  0.00    +0.255 HD
ATOM      6  NH1 ARG A   1      69.066  14.468  -7.857  0.00  0.00    -0.292 N 
ATOM      7 HH11 ARG A   1      69.154  14.567  -6.826  0.00  0.00    +0.255 HD
ATOM      8 HH12 ARG A   1      69.746  14.942  -8.485  0.00  0.00    +0.255 HD
ATOM      9  HE  ARG A   1      67.184  13.021 -10.047  0.00  0.00    +0.259 HD
ENDROOT
BRANCH   1  10
ATOM     10  CD  ARG A   1      68.859  14.225 -10.670  0.00  0.00    +0.174 C 
BRANCH  10  11
ATOM     11  CG  ARG A   1      69.856  13.237 -11.228  0.00  0.00    +0.045 C 
BRANCH  11  12
ATOM     12  CB  ARG A   1      70.569  13.758 -12.485  0.00  0.00    +0.029 C 
BRANCH  12  13
ATOM     13  CA  ARG A   1      71.778  12.915 -12.917  0.00  0.00    +0.133 C 
BRANCH  13  14
ATOM     14  N   ARG A   1      72.717  12.835 -11.820  0.00  0.00    -0.239 NA
ATOM     15  H   ARG A   1      73.225  13.699 -11.541  0.00  0.00    +0.142 HD
ENDBRANCH  13  14
BRANCH  13  16
ATOM     16  C   ARG A   1      72.538  13.565 -14.083  0.00  0.00    +0.224 C 
ATOM     17  O   ARG A   1      72.580  14.788 -14.211  0.00  0.00    -0.287 OA
ENDBRANCH  13  16
ENDBRANCH  12  13
ENDBRANCH  11  12
ENDBRANCH  10  11
ENDBRANCH   1  10
TORSDOF 6
REMARK  Name = ../refined-set-2016/2o4j/2o4j_pocket.pdb
REMARK  284 active torsions:
REMARK  status: ('A' for Active; 'I' for Inactive)
REMARK    1  A    between atoms: _1  and  _3
REMARK    2  A    between atoms: _3  and  _4
REMARK    3  A    between atoms: _3  and  _6
REMARK    4  A    between atoms: _6  and  _7
REMARK    5  A    between atoms: _10  and  _12
REMARK    6  A    between atoms: _12  and  _13
REMARK    7  A    between atoms: _12  and  _15
REMARK    8  A    between atoms: _15  and  _16
REMARK    9  A    between atoms: _21  and  _22
REMARK   10  A    between atoms: _24  and  _26
REMARK   11  A    between atoms: _26  and  _27
REMARK   12  A    between atoms: _26  and  _29
REMARK   13  A    between atoms: _29  and  _30
REMARK   14  A    between atoms: _34  and  _35
REMARK   15  A    between atoms: _40  and  _42
REMARK   16  A    between atoms: _42  and  _43
REMARK   17  A    between atoms: _42  and  _45
REMARK   18  A    between atoms: _45  and  _46
REMARK   19  A    between atoms: _51  and  _52
REMARK   20  A    between atoms: _54  and  _56
REMARK   21  A    between atoms: _56  and  _57
REMARK   22  A    between atoms: _56  and  _59
REMARK   23  A    between atoms: _59  and  _60
REMARK   24  A    between atoms: _66  and  _68
REMARK   25  A    between atoms: _68  and  _69
REMARK   26  A    between atoms: _68  and  _71
REMARK   27  A    between atoms: _71  and  _72
REMARK   28  A    between atoms: _78  and  _80
REMARK   29  A    between atoms: _80  and  _81
REMARK   30  A    between atoms: _80  and  _83
REMARK   31  A    between atoms: _83  and  _84
REMARK   32  A    between atoms: _84  and  _85
REMARK   33  A    between atoms: _85  and  _86
REMARK   34  A    between atoms: _95  and  _97
REMARK   35  A    between atoms: _97  and  _98
REMARK   36  A    between atoms: _97  and  _100
REMARK   37  A    between atoms: _100  and  _101
REMARK   38  A    between atoms: _101  and  _102
REMARK   39  A    between atoms: _104  and  _106
REMARK   40  A    between atoms: _106  and  _107
REMARK   41  A    between atoms: _106  and  _109
REMARK   42  A    between atoms: _109  and  _110
REMARK   43  A    between atoms: _114  and  _115
REMARK   44  A    between atoms: _120  and  _122
REMARK   45  A    between atoms: _122  and  _123
REMARK   46  A    between atoms: _122  and  _125
REMARK   47  A    between atoms: _125  and  _126
REMARK   48  A    between atoms: _131  and  _133
REMARK   49  A    between atoms: _133  and  _134
REMARK   50  A    between atoms: _133  and  _136
REMARK   51  A    between atoms: _136  and  _137
REMARK   52  A    between atoms: _140  and  _142
REMARK   53  A    between atoms: _142  and  _143
REMARK   54  A    between atoms: _146  and  _148
REMARK   55  A    between atoms: _148  and  _149
REMARK   56  A    between atoms: _148  and  _151
REMARK   57  A    between atoms: _151  and  _152
REMARK   58  A    between atoms: _155  and  _157
REMARK   59  A    between atoms: _157  and  _158
REMARK   60  A    between atoms: _157  and  _160
REMARK   61  A    between atoms: _160  and  _161
REMARK   62  A    between atoms: _164  and  _166
REMARK   63  A    between atoms: _166  and  _167
REMARK   64  A    between atoms: _166  and  _169
REMARK   65  A    between atoms: _172  and  _174
REMARK   66  A    between atoms: _174  and  _175
REMARK   67  A    between atoms: _174  and  _177
REMARK   68  A    between atoms: _177  and  _178
REMARK   69  A    between atoms: _180  and  _182
REMARK   70  A    between atoms: _182  and  _183
REMARK   71  A    between atoms: _182  and  _185
REMARK   72  A    between atoms: _185  and  _186
REMARK   73  A    between atoms: _191  and  _192
REMARK   74  A    between atoms: _194  and  _196
REMARK   75  A    between atoms: _196  and  _197
REMARK   76  A    between atoms: _196  and  _199
REMARK   77  A    between atoms: _199  and  _200
REMARK   78  A    between atoms: _202  and  _204
REMARK   79  A    between atoms: _204  and  _205
REMARK   80  A    between atoms: _204  and  _207
REMARK   81  A    between atoms: _207  and  _208
REMARK   82  A    between atoms: _211  and  _213
REMARK   83  A    between atoms: _213  and  _214
REMARK   84  A    between atoms: _213  and  _216
REMARK   85  A    between atoms: _216  and  _217
REMARK   86  A    between atoms: _217  and  _218
REMARK   87  A    between atoms: _218  and  _219
REMARK   88  A    between atoms: _219  and  _220
REMARK   89  A    between atoms: _224  and  _226
REMARK   90  A    between atoms: _226  and  _227
REMARK   91  A    between atoms: _226  and  _229
REMARK   92  A    between atoms: _232  and  _234
REMARK   93  A    between atoms: _234  and  _235
REMARK   94  A    between atoms: _238  and  _240
REMARK   95  A    between atoms: _240  and  _241
REMARK   96  A    between atoms: _240  and  _243
REMARK   97  A    between atoms: _243  and  _244
REMARK   98  A    between atoms: _247  and  _249
REMARK   99  A    between atoms: _249  and  _250
REMARK  100  A    between atoms: _249  and  _252
REMARK  101  A    between atoms: _252  and  _253
REMARK  102  A    between atoms: _253  and  _254
REMARK  103  A    between atoms: _257  and  _259
REMARK  104  A    between atoms: _259  and  _260
REMARK  105  A    between atoms: _259  and  _262
REMARK  106  A    between atoms: _265  and  _267
REMARK  107  A    between atoms: _267  and  _268
REMARK  108  A    between atoms: _267  and  _270
REMARK  109  A    between atoms: _270  and  _271
REMARK  110  A    between atoms: _274  and  _276
REMARK  111  A    between atoms: _276  and  _277
REMARK  112  A    between atoms: _276  and  _279
REMARK  113  A    between atoms: _279  and  _280
REMARK  114  A    between atoms: _280  and  _281
REMARK  115  A    between atoms: _283  and  _285
REMARK  116  A    between atoms: _285  and  _286
REMARK  117  A    between atoms: _285  and  _288
REMARK  118  A    between atoms: _288  and  _289
REMARK  119  A    between atoms: _292  and  _294
REMARK  120  A    between atoms: _294  and  _295
REMARK  121  A    between atoms: _294  and  _297
REMARK  122  A    between atoms: _297  and  _298
REMARK  123  A    between atoms: _298  and  _299
REMARK  124  A    between atoms: _299  and  _300
REMARK  125  A    between atoms: _309  and  _311
REMARK  126  A    between atoms: _311  and  _312
REMARK  127  A    between atoms: _311  and  _314
REMARK  128  A    between atoms: _314  and  _315
REMARK  129  A    between atoms: _317  and  _319
REMARK  130  A    between atoms: _319  and  _320
REMARK  131  A    between atoms: _319  and  _322
REMARK  132  A    between atoms: _322  and  _323
REMARK  133  A    between atoms: _328  and  _330
REMARK  134  A    between atoms: _330  and  _331
REMARK  135  A    between atoms: _330  and  _333
REMARK  136  A    between atoms: _333  and  _334
REMARK  137  A    between atoms: _334  and  _335
REMARK  138  A    between atoms: _340  and  _342
REMARK  139  A    between atoms: _342  and  _343
REMARK  140  A    between atoms: _342  and  _345
REMARK  141  A    between atoms: _345  and  _346
REMARK  142  A    between atoms: _348  and  _350
REMARK  143  A    between atoms: _350  and  _351
REMARK  144  A    between atoms: _350  and  _353
REMARK  145  A    between atoms: _353  and  _354
REMARK  146  A    between atoms: _360  and  _362
REMARK  147  A    between atoms: _362  and  _363
REMARK  148  A    between atoms: _362  and  _365
REMARK  149  A    between atoms: _365  and  _366
REMARK  150  A    between atoms: _368  and  _370
REMARK  151  A    between atoms: _370  and  _371
REMARK  152  A    between atoms: _370  and  _373
REMARK  153  A    between atoms: _373  and  _374
REMARK  154  A    between atoms: _384  and  _386
REMARK  155  A    between atoms: _386  and  _387
REMARK  156  A    between atoms: _386  and  _389
REMARK  157  A    between atoms: _389  and  _390
REMARK  158  A    between atoms: _393  and  _395
REMARK  159  A    between atoms: _395  and  _396
REMARK  160  A    between atoms: _395  and  _398
REMARK  161  A    between atoms: _400  and  _402
REMARK  162  A    between atoms: _402  and  _403
REMARK  163  A    between atoms: _402  and  _405
REMARK  164  A    between atoms: _405  and  _406
REMARK  165  A    between atoms: _411  and  _412
REMARK  166  A    between atoms: _414  and  _416
REMARK  167  A    between atoms: _416  and  _417
REMARK  168  A    between atoms: _416  and  _419
REMARK  169  A    between atoms: _419  and  _420
REMARK  170  A    between atoms: _420  and  _421
REMARK  171  A    between atoms: _421  and  _422
REMARK  172  A    between atoms: _422  and  _423
REMARK  173  A    between atoms: _427  and  _429
REMARK  174  A    between atoms: _429  and  _430
REMARK  175  A    between atoms: _429  and  _432
REMARK  176  A    between atoms: _432  and  _433
REMARK  177  A    between atoms: _438  and  _439
REMARK  178  A    between atoms: _441  and  _443
REMARK  179  A    between atoms: _443  and  _444
REMARK  180  A    between atoms: _443  and  _446
REMARK  181  A    between atoms: _446  and  _447
REMARK  182  A    between atoms: _450  and  _452
REMARK  183  A    between atoms: _452  and  _453
REMARK  184  A    between atoms: _452  and  _455
REMARK  185  A    between atoms: _455  and  _456
REMARK  186  A    between atoms: _459  and  _461
REMARK  187  A    between atoms: _461  and  _462
REMARK  188  A    between atoms: _461  and  _464
REMARK  189  A    between atoms: _467  and  _469
REMARK  190  A    between atoms: _469  and  _470
REMARK  191  A    between atoms: _469  and  _472
REMARK  192  A    between atoms: _472  and  _473
REMARK  193  A    between atoms: _475  and  _477
REMARK  194  A    between atoms: _477  and  _478
REMARK  195  A    between atoms: _481  and  _483
REMARK  196  A    between atoms: _483  and  _484
REMARK  197  A    between atoms: _486  and  _488
REMARK  198  A    between atoms: _488  and  _489
REMARK  199  A    between atoms: _488  and  _491
REMARK  200  A    between atoms: _491  and  _492
REMARK  201  A    between atoms: _497  and  _499
REMARK  202  A    between atoms: _499  and  _500
REMARK  203  A    between atoms: _499  and  _502
REMARK  204  A    between atoms: _502  and  _503
REMARK  205  A    between atoms: _506  and  _508
REMARK  206  A    between atoms: _508  and  _509
REMARK  207  A    between atoms: _508  and  _511
REMARK  208  A    between atoms: _511  and  _512
REMARK  209  A    between atoms: _515  and  _517
REMARK  210  A    between atoms: _517  and  _518
REMARK  211  A    between atoms: _517  and  _520
REMARK  212  A    between atoms: _520  and  _521
REMARK  213  A    between atoms: _524  and  _526
REMARK  214  A    between atoms: _526  and  _527
REMARK  215  A    between atoms: _526  and  _529
REMARK  216  A    between atoms: _529  and  _530
REMARK  217  A    between atoms: _530  and  _531
REMARK  218  A    between atoms: _536  and  _538
REMARK  219  A    between atoms: _538  and  _539
REMARK  220  A    between atoms: _538  and  _541
REMARK  221  A    between atoms: _541  and  _542
REMARK  222  A    between atoms: _545  and  _547
REMARK  223  A    between atoms: _547  and  _548
REMARK  224  A    between atoms: _547  and  _550
REMARK  225  A    between atoms: _550  and  _551
REMARK  226  A    between atoms: _551  and  _552
REMARK  227  A    between atoms: _555  and  _557
REMARK  228  A    between atoms: _557  and  _558
REMARK  229  A    between atoms: _557  and  _560
REMARK  230  A    between atoms: _560  and  _561
REMARK  231  A    between atoms: _566  and  _568
REMARK  232  A    between atoms: _568  and  _569
REMARK  233  A    between atoms: _568  and  _571
REMARK  234  A    between atoms: _571  and  _572
REMARK  235  A    between atoms: _574  and  _576
REMARK  236  A    between atoms: _576  and  _577
REMARK  237  A    between atoms: _576  and  _579
REMARK  238  A    between atoms: _579  and  _580
REMARK  239  A    between atoms: _580  and  _581
REMARK  240  A    between atoms: _586  and  _588
REMARK  241  A    between atoms: _588  and  _589
REMARK  242  A    between atoms: _588  and  _591
REMARK  243  A    between atoms: _591  and  _592
REMARK  244  A    between atoms: _597  and  _598
REMARK  245  A    between atoms: _600  and  _602
REMARK  246  A    between atoms: _602  and  _603
REMARK  247  A    between atoms: _602  and  _605
REMARK  248  A    between atoms: _605  and  _606
REMARK  249  A    between atoms: _606  and  _607
REMARK  250  A    between atoms: _607  and  _608
REMARK  251  A    between atoms: _617  and  _619
REMARK  252  A    between atoms: _619  and  _620
REMARK  253  A    between atoms: _619  and  _622
REMARK  254  A    between atoms: _622  and  _623
REMARK  255  A    between atoms: _626  and  _628
REMARK  256  A    between atoms: _628  and  _629
REMARK  257  A    between atoms: _628  and  _631
REMARK  258  A    between atoms: _631  and  _632
REMARK  259  A    between atoms: _634  and  _636
REMARK  260  A    between atoms: _636  and  _637
REMARK  261  A    between atoms: _636  and  _639
REMARK  262  A    between atoms: _639  and  _640
REMARK  263  A    between atoms: _645  and  _647
REMARK  264  A    between atoms: _647  and  _648
REMARK  265  A    between atoms: _647  and  _650
REMARK  266  A    between atoms: _650  and  _651
REMARK  267  A    between atoms: _651  and  _652
REMARK  268  A    between atoms: _652  and  _653
REMARK  269  A    between atoms: _653  and  _654
REMARK  270  A    between atoms: _658  and  _660
REMARK  271  A    between atoms: _660  and  _661
REMARK  272  A    between atoms: _660  and  _663
REMARK  273  A    between atoms: _663  and  _664
REMARK  274  A    between atoms: _667  and  _669
REMARK  275  A    between atoms: _669  and  _670
REMARK  276  A    between atoms: _669  and  _672
REMARK  277  A    between atoms: _672  and  _673
REMARK  278  A    between atoms: _676  and  _678
REMARK  279  A    between atoms: _678  and  _679
REMARK  280  A    between atoms: _678  and  _681
REMARK  281  A    between atoms: _684  and  _686
REMARK  282  A    between atoms: _686  and  _687
REMARK  283  A    between atoms: _686  and  _689
REMARK  284  A    between atoms: _689  and  _690
REMARK                            x       y       z     vdW  Elec       q    Type
REMARK                         _______ _______ _______ _____ _____    ______ ____
ROOT
ATOM      1  CA  ASP A   7      71.422   3.481  -0.307  0.00  0.00    +0.160 C 
ENDROOT
BRANCH   1   2
ATOM      2  C   ASP A   7      70.074   3.897   0.296  0.00  0.00    +0.241 C 
ATOM      3  O   ASP A   7      69.822   3.634   1.483  0.00  0.00    -0.273 OA
ATOM      4  N   LEU A   8      69.215   4.548  -0.510  0.00  0.00    -0.297 N 
ATOM      5  H   LEU A   8      69.528   4.833  -1.460  0.00  0.00    +0.150 HD
BRANCH   4   6
ATOM      6  CA  LEU A   8      67.860   4.863  -0.087  0.00  0.00    +0.149 C 
BRANCH   6   7
ATOM      7  C   LEU A   8      67.087   3.615   0.222  0.00  0.00    +0.241 C 
ATOM      8  O   LEU A   8      66.451   3.538   1.239  0.00  0.00    -0.273 OA
ATOM      9  N   VAL A   9      67.148   2.649  -0.692  0.00  0.00    -0.297 N 
ATOM     10  H   VAL A   9      67.680   2.806  -1.572  0.00  0.00    +0.150 HD
BRANCH   9  11
ATOM     11  CA  VAL A   9      66.471   1.361  -0.470  0.00  0.00    +0.149 C 
BRANCH  11  12
ATOM     12  C   VAL A   9      67.014   0.584   0.763  0.00  0.00    +0.241 C 
ATOM     13  O   VAL A   9      66.226   0.045   1.553  0.00  0.00    -0.273 OA
ATOM     14  N   SER A  10      68.338   0.514   0.911  0.00  0.00    -0.295 N 
ATOM     15  H   SER A  10      68.948   0.927   0.177  0.00  0.00    +0.150 HD
BRANCH  14  16
ATOM     16  CA  SER A  10      68.966  -0.128   2.078  0.00  0.00    +0.178 C 
BRANCH  16  17
ATOM     17  C   SER A  10      68.497   0.499   3.395  0.00  0.00    +0.243 C 
ATOM     18  O   SER A  10      68.063  -0.162   4.337  0.00  0.00    -0.273 OA
ATOM     19  N   TYR A  11      68.538   1.816   3.447  0.00  0.00    -0.297 N 
ATOM     20  H   TYR A  11      68.927   2.352   2.645  0.00  0.00    +0.150 HD
BRANCH  19  21
ATOM     21  CA  TYR A  11      68.047   2.522   4.610  0.00  0.00    +0.153 C 
BRANCH  21  22
ATOM     22  C   TYR A  11      66.578   2.210   4.858  0.00  0.00    +0.241 C 
ATOM     23  O   TYR A  11      66.174   2.021   5.994  0.00  0.00    -0.273 OA
ATOM     24  N   SER A  12      65.785   2.111   3.786  0.00  0.00    -0.295 N 
ATOM     25  H   SER A  12      66.211   2.150   2.838  0.00  0.00    +0.150 HD
BRANCH  24  26
ATOM     26  CA  SER A  12      64.363   1.953   3.906  0.00  0.00    +0.178 C 
BRANCH  26  27
ATOM     27  C   SER A  12      64.052   0.562   4.431  0.00  0.00    +0.243 C 
ATOM     28  O   SER A  12      63.117   0.393   5.206  0.00  0.00    -0.273 OA
ATOM     29  N   ILE A  13      64.849  -0.404   3.968  0.00  0.00    -0.298 N 
ATOM     30  H   ILE A  13      65.561  -0.185   3.243  0.00  0.00    +0.150 HD
BRANCH  29  31
ATOM     31  CA  ILE A  13      64.722  -1.784   4.483  0.00  0.00    +0.137 C 
BRANCH  31  32
ATOM     32  CB  ILE A  13      65.705  -2.777   3.801  0.00  0.00    +0.026 C 
ATOM     33  CG2 ILE A  13      65.702  -4.110   4.540  0.00  0.00    +0.002 C 
BRANCH  32  34
ATOM     34  CG1 ILE A  13      65.282  -3.088   2.357  0.00  0.00    +0.002 C 
ATOM     35  CD1 ILE A  13      66.434  -3.743   1.530  0.00  0.00    +0.000 C 
ENDBRANCH  32  34
ENDBRANCH  31  32
BRANCH  31  36
ATOM     36  C   ILE A  13      64.913  -1.826   6.004  0.00  0.00    +0.227 C 
ATOM     37  O   ILE A  13      64.150  -2.492   6.716  0.00  0.00    -0.286 OA
ENDBRANCH  31  36
ENDBRANCH  29  31
ENDBRANCH  26  27
BRANCH  26  38
ATOM     38  CB  SER A  12      63.676   2.206   2.568  0.00  0.00    +0.166 C 
BRANCH  38  39
ATOM     39  OG  SER A  12      63.790   3.639   2.297  0.00  0.00    -0.380 OA
ATOM     40  H   SER A  12      64.747   3.890   2.254  0.00  0.00    +0.211 HD
ENDBRANCH  38  39
ENDBRANCH  26  38
ENDBRANCH  24  26
ENDBRANCH  21  22
BRANCH  21  41
ATOM     41  CB  TYR A  11      68.224   3.991   4.322  0.00  0.00    +0.055 C 
BRANCH  41  42
ATOM     42  CG  TYR A  11      67.572   4.952   5.305  0.00  0.00    -0.020 A 
ATOM     43  CD2 TYR A  11      68.306   5.447   6.383  0.00  0.00    -0.001 A 
ATOM     44  CE2 TYR A  11      67.766   6.350   7.269  0.00  0.00    +0.036 A 
ATOM     45  CZ  TYR A  11      66.487   6.796   7.097  0.00  0.00    +0.134 A 
ATOM     46  CE1 TYR A  11      65.715   6.355   6.026  0.00  0.00    +0.036 A 
ATOM     47  CD1 TYR A  11      66.279   5.428   5.117  0.00  0.00    -0.001 A 
BRANCH  45  48
ATOM     48  OH  TYR A  11      65.979   7.714   8.010  0.00  0.00    -0.506 OA
ATOM     49  HH  TYR A  11      66.665   7.908   8.697  0.00  0.00    +0.292 HD
ENDBRANCH  45  48
ENDBRANCH  41  42
ENDBRANCH  21  41
ENDBRANCH  19  21
ENDBRANCH  16  17
BRANCH  16  50
ATOM     50  CB  SER A  10      70.497  -0.067   1.958  0.00  0.00    +0.166 C 
BRANCH  50  51
ATOM     51  OG  SER A  10      71.075  -1.185   2.637  0.00  0.00    -0.380 OA
ATOM     52  H   SER A  10      70.818  -1.158   3.593  0.00  0.00    +0.211 HD
ENDBRANCH  50  51
ENDBRANCH  16  50
ENDBRANCH  14  16
ENDBRANCH  11  12
BRANCH  11  53
ATOM     53  CB  VAL A   9      66.479   0.497  -1.751  0.00  0.00    +0.027 C 
ATOM     54  CG2 VAL A   9      66.010  -0.936  -1.443  0.00  0.00    +0.002 C 
ATOM     55  CG1 VAL A   9      65.620   1.116  -2.847  0.00  0.00    +0.002 C 
ENDBRANCH  11  53
ENDBRANCH   9  11
ENDBRANCH   6   7
BRANCH   6  56
ATOM     56  CB  LEU A   8      67.091   5.628  -1.144  0.00  0.00    +0.029 C 
BRANCH  56  57
ATOM     57  CG  LEU A   8      65.576   5.858  -0.922  0.00  0.00    +0.002 C 
ATOM     58  CD2 LEU A   8      65.333   6.519   0.416  0.00  0.00    +0.000 C 
ATOM     59  CD1 LEU A   8      65.010   6.689  -2.090  0.00  0.00    +0.000 C 
ENDBRANCH  56  57
ENDBRANCH   6  56
ENDBRANCH   4   6
ENDBRANCH   1   2
BRANCH   1  62
ATOM     60  C   ALA A   6      70.652   1.913  -2.046  0.00  0.00    +0.241 C 
ATOM     61  O   ALA A   6      70.113   1.196  -1.210  0.00  0.00    -0.273 OA
ATOM     62  N   ASP A   7      71.289   3.056  -1.712  0.00  0.00    -0.297 N 
ATOM     63  H   ASP A   7      71.695   3.650  -2.463  0.00  0.00    +0.150 HD
BRANCH  60  64
ATOM     64  CA  ALA A   6      70.539   1.591  -3.537  0.00  0.00    +0.149 C 
ATOM     65  CB  ALA A   6      71.845   0.901  -4.067  0.00  0.00    +0.031 C 
BRANCH  64  68
ATOM     66  C   LEU A   5      69.056   3.456  -4.080  0.00  0.00    +0.241 C 
ATOM     67  O   LEU A   5      68.189   3.032  -3.313  0.00  0.00    -0.273 OA
ATOM     68  N   ALA A   6      70.213   2.822  -4.299  0.00  0.00    -0.297 N 
ATOM     69  H   ALA A   6      70.884   3.191  -5.003  0.00  0.00    +0.150 HD
BRANCH  66  70
ATOM     70  CA  LEU A   5      68.847   4.809  -4.755  0.00  0.00    +0.149 C 
BRANCH  70  73
ATOM     71  C   HIS A   4      70.760   6.035  -3.895  0.00  0.00    +0.241 C 
ATOM     72  O   HIS A   4      70.369   5.931  -2.719  0.00  0.00    -0.273 OA
ATOM     73  N   LEU A   5      70.134   5.470  -4.923  0.00  0.00    -0.297 N 
ATOM     74  H   LEU A   5      70.572   5.501  -5.866  0.00  0.00    +0.150 HD
BRANCH  71  75
ATOM     75  CA  HIS A   4      72.025   6.814  -4.234  0.00  0.00    +0.155 C 
BRANCH  75  78
ATOM     76  C   PRO A   3      73.469   4.941  -4.738  0.00  0.00    +0.241 C 
ATOM     77  O   PRO A   3      73.219   4.441  -3.630  0.00  0.00    -0.273 OA
ATOM     78  N   HIS A   4      72.937   6.095  -5.124  0.00  0.00    -0.297 N 
ATOM     79  H   HIS A   4      73.169   6.488  -6.059  0.00  0.00    +0.150 HD
BRANCH  76  83
ATOM     80  C   LEU A   2      72.689   3.501  -7.229  0.00  0.00    +0.244 C 
ATOM     81  O   LEU A   2      72.128   2.964  -6.272  0.00  0.00    -0.273 OA
ATOM     82  N   PRO A   3      73.898   4.102  -7.097  0.00  0.00    -0.272 N 
ATOM     83  CA  PRO A   3      74.433   4.240  -5.712  0.00  0.00    +0.152 C 
ATOM     84  CB  PRO A   3      75.731   5.050  -5.901  0.00  0.00    +0.031 C 
ATOM     85  CG  PRO A   3      76.161   4.734  -7.340  0.00  0.00    +0.024 C 
ATOM     86  CD  PRO A   3      74.851   4.599  -8.112  0.00  0.00    +0.094 C 
BRANCH  80  87
ATOM     87  CA  LEU A   2      72.028   3.408  -8.631  0.00  0.00    +0.149 C 
BRANCH  87  90
ATOM     88  C   MET A   1      71.340   5.715  -8.932  0.00  0.00    +0.238 C 
ATOM     89  O   MET A   1      70.753   5.687  -7.860  0.00  0.00    -0.274 OA
ATOM     90  N   LEU A   2      71.976   4.656  -9.416  0.00  0.00    -0.297 N 
ATOM     91  H   LEU A   2      72.437   4.706 -10.347  0.00  0.00    +0.150 HD
BRANCH  88  92
ATOM     92  CA  MET A   1      71.342   6.997  -9.777  0.00  0.00    +0.146 C 
BRANCH  92  93
ATOM     93  N   MET A   1      72.120   6.834 -11.013  0.00  0.00    -0.238 NA
ATOM     94  H   MET A   1      71.664   6.423 -11.852  0.00  0.00    +0.142 HD
ENDBRANCH  92  93
BRANCH  92  95
ATOM     95  CB  MET A   1      69.894   7.402 -10.086  0.00  0.00    +0.038 C 
BRANCH  95  96
ATOM     96  CG  MET A   1      69.695   8.842 -10.463  0.00  0.00    +0.060 C 
BRANCH  96  97
ATOM     97  SD  MET A   1      70.071   9.966  -9.111  0.00  0.00    -0.139 S 
ATOM     98  CE  MET A   1      68.698   9.639  -7.998  0.00  0.00    +0.069 C 
ENDBRANCH  96  97
ENDBRANCH  95  96
ENDBRANCH  92  95
ENDBRANCH  88  92
ENDBRANCH  87  90
BRANCH  87  99
ATOM     99  CB  LEU A   2      72.605   2.252  -9.452  0.00  0.00    +0.029 C 
BRANCH  99 100
ATOM    100  CG  LEU A   2      72.638   0.861  -8.782  0.00  0.00    +0.002 C 
ATOM    101  CD2 LEU A   2      71.239   0.366  -8.356  0.00  0.00    +0.000 C 
ATOM    102  CD1 LEU A   2      73.324  -0.130  -9.705  0.00  0.00    +0.000 C 
ENDBRANCH  99 100
ENDBRANCH  87  99
ENDBRANCH  80  87
ENDBRANCH  76  83
ENDBRANCH  75  78
BRANCH  75 103
ATOM    103  CB  HIS A   4      71.634   8.164  -4.842  0.00  0.00    +0.076 C 
BRANCH 103 104
ATOM    104  CG  HIS A   4      70.789   9.002  -3.935  0.00  0.00    +0.082 A 
ATOM    105  ND1 HIS A   4      71.308   9.673  -2.846  0.00  0.00    -0.227 NA
ATOM    106  CE1 HIS A   4      70.342  10.314  -2.222  0.00  0.00    +0.199 A 
ATOM    107  NE2 HIS A   4      69.211  10.094  -2.870  0.00  0.00    -0.221 NA
ATOM    108  CD2 HIS A   4      69.465   9.286  -3.955  0.00  0.00    +0.115 A 
ENDBRANCH 103 104
ENDBRANCH  75 103
ENDBRANCH  71  75
ENDBRANCH  70  73
BRANCH  70 109
ATOM    109  CB  LEU A   5      68.064   4.662  -6.081  0.00  0.00    +0.029 C 
BRANCH 109 110
ATOM    110  CG  LEU A   5      67.513   5.978  -6.649  0.00  0.00    +0.002 C 
ATOM    111  CD2 LEU A   5      66.778   6.725  -5.520  0.00  0.00    +0.000 C 
ATOM    112  CD1 LEU A   5      66.552   5.684  -7.802  0.00  0.00    +0.000 C 
ENDBRANCH 109 110
ENDBRANCH  70 109
ENDBRANCH  66  70
ENDBRANCH  64  68
ENDBRANCH  60  64
ENDBRANCH   1  62
BRANCH   1 113
ATOM    113  CB  ASP A   7      72.394   4.674  -0.186  0.00  0.00    +0.143 C 
BRANCH 113 114
ATOM    114  CG  ASP A   7      73.863   4.253  -0.225  0.00  0.00    +0.367 C 
ATOM    115  OD2 ASP A   7      74.196   3.034  -0.163  0.00  0.00    -0.246 OA
ATOM    116  OD1 ASP A   7      74.707   5.155  -0.355  0.00  0.00    -0.246 OA
ENDBRANCH 113 114
ENDBRANCH   1 113
TORSDOF 48
REMARK  Name = ../refined-set-2016/2o4j/2o4j_pocket.pdb
REMARK  284 active torsions:
REMARK  status: ('A' for Active; 'I' for Inactive)
REMARK    1  A    between atoms: _1  and  _3
REMARK    2  A    between atoms: _3  and  _4
REMARK    3  A    between atoms: _3  and  _6
REMARK    4  A    between atoms: _6  and  _7
REMARK    5  A    between atoms: _10  and  _12
REMARK    6  A    between atoms: _12  and  _13
REMARK    7  A    between atoms: _12  and  _15
REMARK    8  A    between atoms: _15  and  _16
REMARK    9  A    between atoms: _21  and  _22
REMARK   10  A    between atoms: _24  and  _26
REMARK   11  A    between atoms: _26  and  _27
REMARK   12  A    between atoms: _26  and  _29
REMARK   13  A    between atoms: _29  and  _30
REMARK   14  A    between atoms: _34  and  _35
REMARK   15  A    between atoms: _40  and  _42
REMARK   16  A    between atoms: _42  and  _43
REMARK   17  A    between atoms: _42  and  _45
REMARK   18  A    between atoms: _45  and  _46
REMARK   19  A    between atoms: _51  and  _52
REMARK   20  A    between atoms: _54  and  _56
REMARK   21  A    between atoms: _56  and  _57
REMARK   22  A    between atoms: _56  and  _59
REMARK   23  A    between atoms: _59  and  _60
REMARK   24  A    between atoms: _66  and  _68
REMARK   25  A    between atoms: _68  and  _69
REMARK   26  A    between atoms: _68  and  _71
REMARK   27  A    between atoms: _71  and  _72
REMARK   28  A    between atoms: _78  and  _80
REMARK   29  A    between atoms: _80  and  _81
REMARK   30  A    between atoms: _80  and  _83
REMARK   31  A    between atoms: _83  and  _84
REMARK   32  A    between atoms: _84  and  _85
REMARK   33  A    between atoms: _85  and  _86
REMARK   34  A    between atoms: _95  and  _97
REMARK   35  A    between atoms: _97  and  _98
REMARK   36  A    between atoms: _97  and  _100
REMARK   37  A    between atoms: _100  and  _101
REMARK   38  A    between atoms: _101  and  _102
REMARK   39  A    between atoms: _104  and  _106
REMARK   40  A    between atoms: _106  and  _107
REMARK   41  A    between atoms: _106  and  _109
REMARK   42  A    between atoms: _109  and  _110
REMARK   43  A    between atoms: _114  and  _115
REMARK   44  A    between atoms: _120  and  _122
REMARK   45  A    between atoms: _122  and  _123
REMARK   46  A    between atoms: _122  and  _125
REMARK   47  A    between atoms: _125  and  _126
REMARK   48  A    between atoms: _131  and  _133
REMARK   49  A    between atoms: _133  and  _134
REMARK   50  A    between atoms: _133  and  _136
REMARK   51  A    between atoms: _136  and  _137
REMARK   52  A    between atoms: _140  and  _142
REMARK   53  A    between atoms: _142  and  _143
REMARK   54  A    between atoms: _146  and  _148
REMARK   55  A    between atoms: _148  and  _149
REMARK   56  A    between atoms: _148  and  _151
REMARK   57  A    between atoms: _151  and  _152
REMARK   58  A    between atoms: _155  and  _157
REMARK   59  A    between atoms: _157  and  _158
REMARK   60  A    between atoms: _157  and  _160
REMARK   61  A    between atoms: _160  and  _161
REMARK   62  A    between atoms: _164  and  _166
REMARK   63  A    between atoms: _166  and  _167
REMARK   64  A    between atoms: _166  and  _169
REMARK   65  A    between atoms: _172  and  _174
REMARK   66  A    between atoms: _174  and  _175
REMARK   67  A    between atoms: _174  and  _177
REMARK   68  A    between atoms: _177  and  _178
REMARK   69  A    between atoms: _180  and  _182
REMARK   70  A    between atoms: _182  and  _183
REMARK   71  A    between atoms: _182  and  _185
REMARK   72  A    between atoms: _185  and  _186
REMARK   73  A    between atoms: _191  and  _192
REMARK   74  A    between atoms: _194  and  _196
REMARK   75  A    between atoms: _196  and  _197
REMARK   76  A    between atoms: _196  and  _199
REMARK   77  A    between atoms: _199  and  _200
REMARK   78  A    between atoms: _202  and  _204
REMARK   79  A    between atoms: _204  and  _205
REMARK   80  A    between atoms: _204  and  _207
REMARK   81  A    between atoms: _207  and  _208
REMARK   82  A    between atoms: _211  and  _213
REMARK   83  A    between atoms: _213  and  _214
REMARK   84  A    between atoms: _213  and  _216
REMARK   85  A    between atoms: _216  and  _217
REMARK   86  A    between atoms: _217  and  _218
REMARK   87  A    between atoms: _218  and  _219
REMARK   88  A    between atoms: _219  and  _220
REMARK   89  A    between atoms: _224  and  _226
REMARK   90  A    between atoms: _226  and  _227
REMARK   91  A    between atoms: _226  and  _229
REMARK   92  A    between atoms: _232  and  _234
REMARK   93  A    between atoms: _234  and  _235
REMARK   94  A    between atoms: _238  and  _240
REMARK   95  A    between atoms: _240  and  _241
REMARK   96  A    between atoms: _240  and  _243
REMARK   97  A    between atoms: _243  and  _244
REMARK   98  A    between atoms: _247  and  _249
REMARK   99  A    between atoms: _249  and  _250
REMARK  100  A    between atoms: _249  and  _252
REMARK  101  A    between atoms: _252  and  _253
REMARK  102  A    between atoms: _253  and  _254
REMARK  103  A    between atoms: _257  and  _259
REMARK  104  A    between atoms: _259  and  _260
REMARK  105  A    between atoms: _259  and  _262
REMARK  106  A    between atoms: _265  and  _267
REMARK  107  A    between atoms: _267  and  _268
REMARK  108  A    between atoms: _267  and  _270
REMARK  109  A    between atoms: _270  and  _271
REMARK  110  A    between atoms: _274  and  _276
REMARK  111  A    between atoms: _276  and  _277
REMARK  112  A    between atoms: _276  and  _279
REMARK  113  A    between atoms: _279  and  _280
REMARK  114  A    between atoms: _280  and  _281
REMARK  115  A    between atoms: _283  and  _285
REMARK  116  A    between atoms: _285  and  _286
REMARK  117  A    between atoms: _285  and  _288
REMARK  118  A    between atoms: _288  and  _289
REMARK  119  A    between atoms: _292  and  _294
REMARK  120  A    between atoms: _294  and  _295
REMARK  121  A    between atoms: _294  and  _297
REMARK  122  A    between atoms: _297  and  _298
REMARK  123  A    between atoms: _298  and  _299
REMARK  124  A    between atoms: _299  and  _300
REMARK  125  A    between atoms: _309  and  _311
REMARK  126  A    between atoms: _311  and  _312
REMARK  127  A    between atoms: _311  and  _314
REMARK  128  A    between atoms: _314  and  _315
REMARK  129  A    between atoms: _317  and  _319
REMARK  130  A    between atoms: _319  and  _320
REMARK  131  A    between atoms: _319  and  _322
REMARK  132  A    between atoms: _322  and  _323
REMARK  133  A    between atoms: _328  and  _330
REMARK  134  A    between atoms: _330  and  _331
REMARK  135  A    between atoms: _330  and  _333
REMARK  136  A    between atoms: _333  and  _334
REMARK  137  A    between atoms: _334  and  _335
REMARK  138  A    between atoms: _340  and  _342
REMARK  139  A    between atoms: _342  and  _343
REMARK  140  A    between atoms: _342  and  _345
REMARK  141  A    between atoms: _345  and  _346
REMARK  142  A    between atoms: _348  and  _350
REMARK  143  A    between atoms: _350  and  _351
REMARK  144  A    between atoms: _350  and  _353
REMARK  145  A    between atoms: _353  and  _354
REMARK  146  A    between atoms: _360  and  _362
REMARK  147  A    between atoms: _362  and  _363
REMARK  148  A    between atoms: _362  and  _365
REMARK  149  A    between atoms: _365  and  _366
REMARK  150  A    between atoms: _368  and  _370
REMARK  151  A    between atoms: _370  and  _371
REMARK  152  A    between atoms: _370  and  _373
REMARK  153  A    between atoms: _373  and  _374
REMARK  154  A    between atoms: _384  and  _386
REMARK  155  A    between atoms: _386  and  _387
REMARK  156  A    between atoms: _386  and  _389
REMARK  157  A    between atoms: _389  and  _390
REMARK  158  A    between atoms: _393  and  _395
REMARK  159  A    between atoms: _395  and  _396
REMARK  160  A    between atoms: _395  and  _398
REMARK  161  A    between atoms: _400  and  _402
REMARK  162  A    between atoms: _402  and  _403
REMARK  163  A    between atoms: _402  and  _405
REMARK  164  A    between atoms: _405  and  _406
REMARK  165  A    between atoms: _411  and  _412
REMARK  166  A    between atoms: _414  and  _416
REMARK  167  A    between atoms: _416  and  _417
REMARK  168  A    between atoms: _416  and  _419
REMARK  169  A    between atoms: _419  and  _420
REMARK  170  A    between atoms: _420  and  _421
REMARK  171  A    between atoms: _421  and  _422
REMARK  172  A    between atoms: _422  and  _423
REMARK  173  A    between atoms: _427  and  _429
REMARK  174  A    between atoms: _429  and  _430
REMARK  175  A    between atoms: _429  and  _432
REMARK  176  A    between atoms: _432  and  _433
REMARK  177  A    between atoms: _438  and  _439
REMARK  178  A    between atoms: _441  and  _443
REMARK  179  A    between atoms: _443  and  _444
REMARK  180  A    between atoms: _443  and  _446
REMARK  181  A    between atoms: _446  and  _447
REMARK  182  A    between atoms: _450  and  _452
REMARK  183  A    between atoms: _452  and  _453
REMARK  184  A    between atoms: _452  and  _455
REMARK  185  A    between atoms: _455  and  _456
REMARK  186  A    between atoms: _459  and  _461
REMARK  187  A    between atoms: _461  and  _462
REMARK  188  A    between atoms: _461  and  _464
REMARK  189  A    between atoms: _467  and  _469
REMARK  190  A    between atoms: _469  and  _470
REMARK  191  A    between atoms: _469  and  _472
REMARK  192  A    between atoms: _472  and  _473
REMARK  193  A    between atoms: _475  and  _477
REMARK  194  A    between atoms: _477  and  _478
REMARK  195  A    between atoms: _481  and  _483
REMARK  196  A    between atoms: _483  and  _484
REMARK  197  A    between atoms: _486  and  _488
REMARK  198  A    between atoms: _488  and  _489
REMARK  199  A    between atoms: _488  and  _491
REMARK  200  A    between atoms: _491  and  _492
REMARK  201  A    between atoms: _497  and  _499
REMARK  202  A    between atoms: _499  and  _500
REMARK  203  A    between atoms: _499  and  _502
REMARK  204  A    between atoms: _502  and  _503
REMARK  205  A    between atoms: _506  and  _508
REMARK  206  A    between atoms: _508  and  _509
REMARK  207  A    between atoms: _508  and  _511
REMARK  208  A    between atoms: _511  and  _512
REMARK  209  A    between atoms: _515  and  _517
REMARK  210  A    between atoms: _517  and  _518
REMARK  211  A    between atoms: _517  and  _520
REMARK  212  A    between atoms: _520  and  _521
REMARK  213  A    between atoms: _524  and  _526
REMARK  214  A    between atoms: _526  and  _527
REMARK  215  A    between atoms: _526  and  _529
REMARK  216  A    between atoms: _529  and  _530
REMARK  217  A    between atoms: _530  and  _531
REMARK  218  A    between atoms: _536  and  _538
REMARK  219  A    between atoms: _538  and  _539
REMARK  220  A    between atoms: _538  and  _541
REMARK  221  A    between atoms: _541  and  _542
REMARK  222  A    between atoms: _545  and  _547
REMARK  223  A    between atoms: _547  and  _548
REMARK  224  A    between atoms: _547  and  _550
REMARK  225  A    between atoms: _550  and  _551
REMARK  226  A    between atoms: _551  and  _552
REMARK  227  A    between atoms: _555  and  _557
REMARK  228  A    between atoms: _557  and  _558
REMARK  229  A    between atoms: _557  and  _560
REMARK  230  A    between atoms: _560  and  _561
REMARK  231  A    between atoms: _566  and  _568
REMARK  232  A    between atoms: _568  and  _569
REMARK  233  A    between atoms: _568  and  _571
REMARK  234  A    between atoms: _571  and  _572
REMARK  235  A    between atoms: _574  and  _576
REMARK  236  A    between atoms: _576  and  _577
REMARK  237  A    between atoms: _576  and  _579
REMARK  238  A    between atoms: _579  and  _580
REMARK  239  A    between atoms: _580  and  _581
REMARK  240  A    between atoms: _586  and  _588
REMARK  241  A    between atoms: _588  and  _589
REMARK  242  A    between atoms: _588  and  _591
REMARK  243  A    between atoms: _591  and  _592
REMARK  244  A    between atoms: _597  and  _598
REMARK  245  A    between atoms: _600  and  _602
REMARK  246  A    between atoms: _602  and  _603
REMARK  247  A    between atoms: _602  and  _605
REMARK  248  A    between atoms: _605  and  _606
REMARK  249  A    between atoms: _606  and  _607
REMARK  250  A    between atoms: _607  and  _608
REMARK  251  A    between atoms: _617  and  _619
REMARK  252  A    between atoms: _619  and  _620
REMARK  253  A    between atoms: _619  and  _622
REMARK  254  A    between atoms: _622  and  _623
REMARK  255  A    between atoms: _626  and  _628
REMARK  256  A    between atoms: _628  and  _629
REMARK  257  A    between atoms: _628  and  _631
REMARK  258  A    between atoms: _631  and  _632
REMARK  259  A    between atoms: _634  and  _636
REMARK  260  A    between atoms: _636  and  _637
REMARK  261  A    between atoms: _636  and  _639
REMARK  262  A    between atoms: _639  and  _640
REMARK  263  A    between atoms: _645  and  _647
REMARK  264  A    between atoms: _647  and  _648
REMARK  265  A    between atoms: _647  and  _650
REMARK  266  A    between atoms: _650  and  _651
REMARK  267  A    between atoms: _651  and  _652
REMARK  268  A    between atoms: _652  and  _653
REMARK  269  A    between atoms: _653  and  _654
REMARK  270  A    between atoms: _658  and  _660
REMARK  271  A    between atoms: _660  and  _661
REMARK  272  A    between atoms: _660  and  _663
REMARK  273  A    between atoms: _663  and  _664
REMARK  274  A    between atoms: _667  and  _669
REMARK  275  A    between atoms: _669  and  _670
REMARK  276  A    between atoms: _669  and  _672
REMARK  277  A    between atoms: _672  and  _673
REMARK  278  A    between atoms: _676  and  _678
REMARK  279  A    between atoms: _678  and  _679
REMARK  280  A    between atoms: _678  and  _681
REMARK  281  A    between atoms: _684  and  _686
REMARK  282  A    between atoms: _686  and  _687
REMARK  283  A    between atoms: _686  and  _689
REMARK  284  A    between atoms: _689  and  _690
REMARK                            x       y       z     vdW  Elec       q    Type
REMARK                         _______ _______ _______ _____ _____    ______ ____
ROOT
ATOM      1  CA  LYS A   1      63.212   1.134   8.729  0.00  0.00    +0.145 C 
ENDROOT
BRANCH   1   2
ATOM      2  C   LYS A   1      61.961   0.275   8.691  0.00  0.00    +0.238 C 
ATOM      3  O   LYS A   1      61.203   0.265   9.661  0.00  0.00    -0.274 OA
ATOM      4  N   VAL A   2      61.772  -0.462   7.597  0.00  0.00    -0.298 N 
ATOM      5  H   VAL A   2      62.467  -0.390   6.827  0.00  0.00    +0.150 HD
BRANCH   4   6
ATOM      6  CA  VAL A   2      60.637  -1.367   7.424  0.00  0.00    +0.137 C 
BRANCH   6   7
ATOM      7  CB  VAL A   2      60.573  -1.962   6.006  0.00  0.00    +0.026 C 
ATOM      8  CG2 VAL A   2      59.597  -3.114   5.963  0.00  0.00    +0.002 C 
ATOM      9  CG1 VAL A   2      60.078  -0.911   5.010  0.00  0.00    +0.002 C 
ENDBRANCH   6   7
BRANCH   6  10
ATOM     10  C   VAL A   2      60.766  -2.461   8.496  0.00  0.00    +0.227 C 
ATOM     11  O   VAL A   2      59.771  -2.786   9.126  0.00  0.00    -0.286 OA
ENDBRANCH   6  10
ENDBRANCH   4   6
ENDBRANCH   1   2
BRANCH   1  12
ATOM     12  N   LYS A   1      64.378   0.523   8.134  0.00  0.00    -0.238 NA
ATOM     13  H   LYS A   1      64.748   0.909   7.242  0.00  0.00    +0.142 HD
ENDBRANCH   1  12
BRANCH   1  14
ATOM     14  CB  LYS A   1      62.967   2.505   8.098  0.00  0.00    +0.026 C 
BRANCH  14  15
ATOM     15  CG  LYS A   1      64.159   3.404   8.246  0.00  0.00    -0.000 C 
BRANCH  15  16
ATOM     16  CD  LYS A   1      64.468   3.727   9.708  0.00  0.00    -0.024 C 
BRANCH  16  17
ATOM     17  CE  LYS A   1      65.743   4.544   9.823  0.00  0.00    -0.086 C 
BRANCH  17  18
ATOM     18  NZ  LYS A   1      66.067   4.772  11.281  0.00  0.00    +0.380 N 
ATOM     19  HZ1 LYS A   1      66.199   3.855  11.753  0.00  0.00    -0.089 HD
ATOM     20  HZ2 LYS A   1      65.284   5.286  11.733  0.00  0.00    -0.089 HD
ATOM     21  HZ3 LYS A   1      66.940   5.332  11.357  0.00  0.00    -0.089 HD
ENDBRANCH  17  18
ENDBRANCH  16  17
ENDBRANCH  15  16
ENDBRANCH  14  15
ENDBRANCH   1  14
TORSDOF 10
REMARK  Name = ../refined-set-2016/2o4j/2o4j_pocket.pdb
REMARK  284 active torsions:
REMARK  status: ('A' for Active; 'I' for Inactive)
REMARK    1  A    between atoms: _1  and  _3
REMARK    2  A    between atoms: _3  and  _4
REMARK    3  A    between atoms: _3  and  _6
REMARK    4  A    between atoms: _6  and  _7
REMARK    5  A    between atoms: _10  and  _12
REMARK    6  A    between atoms: _12  and  _13
REMARK    7  A    between atoms: _12  and  _15
REMARK    8  A    between atoms: _15  and  _16
REMARK    9  A    between atoms: _21  and  _22
REMARK   10  A    between atoms: _24  and  _26
REMARK   11  A    between atoms: _26  and  _27
REMARK   12  A    between atoms: _26  and  _29
REMARK   13  A    between atoms: _29  and  _30
REMARK   14  A    between atoms: _34  and  _35
REMARK   15  A    between atoms: _40  and  _42
REMARK   16  A    between atoms: _42  and  _43
REMARK   17  A    between atoms: _42  and  _45
REMARK   18  A    between atoms: _45  and  _46
REMARK   19  A    between atoms: _51  and  _52
REMARK   20  A    between atoms: _54  and  _56
REMARK   21  A    between atoms: _56  and  _57
REMARK   22  A    between atoms: _56  and  _59
REMARK   23  A    between atoms: _59  and  _60
REMARK   24  A    between atoms: _66  and  _68
REMARK   25  A    between atoms: _68  and  _69
REMARK   26  A    between atoms: _68  and  _71
REMARK   27  A    between atoms: _71  and  _72
REMARK   28  A    between atoms: _78  and  _80
REMARK   29  A    between atoms: _80  and  _81
REMARK   30  A    between atoms: _80  and  _83
REMARK   31  A    between atoms: _83  and  _84
REMARK   32  A    between atoms: _84  and  _85
REMARK   33  A    between atoms: _85  and  _86
REMARK   34  A    between atoms: _95  and  _97
REMARK   35  A    between atoms: _97  and  _98
REMARK   36  A    between atoms: _97  and  _100
REMARK   37  A    between atoms: _100  and  _101
REMARK   38  A    between atoms: _101  and  _102
REMARK   39  A    between atoms: _104  and  _106
REMARK   40  A    between atoms: _106  and  _107
REMARK   41  A    between atoms: _106  and  _109
REMARK   42  A    between atoms: _109  and  _110
REMARK   43  A    between atoms: _114  and  _115
REMARK   44  A    between atoms: _120  and  _122
REMARK   45  A    between atoms: _122  and  _123
REMARK   46  A    between atoms: _122  and  _125
REMARK   47  A    between atoms: _125  and  _126
REMARK   48  A    between atoms: _131  and  _133
REMARK   49  A    between atoms: _133  and  _134
REMARK   50  A    between atoms: _133  and  _136
REMARK   51  A    between atoms: _136  and  _137
REMARK   52  A    between atoms: _140  and  _142
REMARK   53  A    between atoms: _142  and  _143
REMARK   54  A    between atoms: _146  and  _148
REMARK   55  A    between atoms: _148  and  _149
REMARK   56  A    between atoms: _148  and  _151
REMARK   57  A    between atoms: _151  and  _152
REMARK   58  A    between atoms: _155  and  _157
REMARK   59  A    between atoms: _157  and  _158
REMARK   60  A    between atoms: _157  and  _160
REMARK   61  A    between atoms: _160  and  _161
REMARK   62  A    between atoms: _164  and  _166
REMARK   63  A    between atoms: _166  and  _167
REMARK   64  A    between atoms: _166  and  _169
REMARK   65  A    between atoms: _172  and  _174
REMARK   66  A    between atoms: _174  and  _175
REMARK   67  A    between atoms: _174  and  _177
REMARK   68  A    between atoms: _177  and  _178
REMARK   69  A    between atoms: _180  and  _182
REMARK   70  A    between atoms: _182  and  _183
REMARK   71  A    between atoms: _182  and  _185
REMARK   72  A    between atoms: _185  and  _186
REMARK   73  A    between atoms: _191  and  _192
REMARK   74  A    between atoms: _194  and  _196
REMARK   75  A    between atoms: _196  and  _197
REMARK   76  A    between atoms: _196  and  _199
REMARK   77  A    between atoms: _199  and  _200
REMARK   78  A    between atoms: _202  and  _204
REMARK   79  A    between atoms: _204  and  _205
REMARK   80  A    between atoms: _204  and  _207
REMARK   81  A    between atoms: _207  and  _208
REMARK   82  A    between atoms: _211  and  _213
REMARK   83  A    between atoms: _213  and  _214
REMARK   84  A    between atoms: _213  and  _216
REMARK   85  A    between atoms: _216  and  _217
REMARK   86  A    between atoms: _217  and  _218
REMARK   87  A    between atoms: _218  and  _219
REMARK   88  A    between atoms: _219  and  _220
REMARK   89  A    between atoms: _224  and  _226
REMARK   90  A    between atoms: _226  and  _227
REMARK   91  A    between atoms: _226  and  _229
REMARK   92  A    between atoms: _232  and  _234
REMARK   93  A    between atoms: _234  and  _235
REMARK   94  A    between atoms: _238  and  _240
REMARK   95  A    between atoms: _240  and  _241
REMARK   96  A    between atoms: _240  and  _243
REMARK   97  A    between atoms: _243  and  _244
REMARK   98  A    between atoms: _247  and  _249
REMARK   99  A    between atoms: _249  and  _250
REMARK  100  A    between atoms: _249  and  _252
REMARK  101  A    between atoms: _252  and  _253
REMARK  102  A    between atoms: _253  and  _254
REMARK  103  A    between atoms: _257  and  _259
REMARK  104  A    between atoms: _259  and  _260
REMARK  105  A    between atoms: _259  and  _262
REMARK  106  A    between atoms: _265  and  _267
REMARK  107  A    between atoms: _267  and  _268
REMARK  108  A    between atoms: _267  and  _270
REMARK  109  A    between atoms: _270  and  _271
REMARK  110  A    between atoms: _274  and  _276
REMARK  111  A    between atoms: _276  and  _277
REMARK  112  A    between atoms: _276  and  _279
REMARK  113  A    between atoms: _279  and  _280
REMARK  114  A    between atoms: _280  and  _281
REMARK  115  A    between atoms: _283  and  _285
REMARK  116  A    between atoms: _285  and  _286
REMARK  117  A    between atoms: _285  and  _288
REMARK  118  A    between atoms: _288  and  _289
REMARK  119  A    between atoms: _292  and  _294
REMARK  120  A    between atoms: _294  and  _295
REMARK  121  A    between atoms: _294  and  _297
REMARK  122  A    between atoms: _297  and  _298
REMARK  123  A    between atoms: _298  and  _299
REMARK  124  A    between atoms: _299  and  _300
REMARK  125  A    between atoms: _309  and  _311
REMARK  126  A    between atoms: _311  and  _312
REMARK  127  A    between atoms: _311  and  _314
REMARK  128  A    between atoms: _314  and  _315
REMARK  129  A    between atoms: _317  and  _319
REMARK  130  A    between atoms: _319  and  _320
REMARK  131  A    between atoms: _319  and  _322
REMARK  132  A    between atoms: _322  and  _323
REMARK  133  A    between atoms: _328  and  _330
REMARK  134  A    between atoms: _330  and  _331
REMARK  135  A    between atoms: _330  and  _333
REMARK  136  A    between atoms: _333  and  _334
REMARK  137  A    between atoms: _334  and  _335
REMARK  138  A    between atoms: _340  and  _342
REMARK  139  A    between atoms: _342  and  _343
REMARK  140  A    between atoms: _342  and  _345
REMARK  141  A    between atoms: _345  and  _346
REMARK  142  A    between atoms: _348  and  _350
REMARK  143  A    between atoms: _350  and  _351
REMARK  144  A    between atoms: _350  and  _353
REMARK  145  A    between atoms: _353  and  _354
REMARK  146  A    between atoms: _360  and  _362
REMARK  147  A    between atoms: _362  and  _363
REMARK  148  A    between atoms: _362  and  _365
REMARK  149  A    between atoms: _365  and  _366
REMARK  150  A    between atoms: _368  and  _370
REMARK  151  A    between atoms: _370  and  _371
REMARK  152  A    between atoms: _370  and  _373
REMARK  153  A    between atoms: _373  and  _374
REMARK  154  A    between atoms: _384  and  _386
REMARK  155  A    between atoms: _386  and  _387
REMARK  156  A    between atoms: _386  and  _389
REMARK  157  A    between atoms: _389  and  _390
REMARK  158  A    between atoms: _393  and  _395
REMARK  159  A    between atoms: _395  and  _396
REMARK  160  A    between atoms: _395  and  _398
REMARK  161  A    between atoms: _400  and  _402
REMARK  162  A    between atoms: _402  and  _403
REMARK  163  A    between atoms: _402  and  _405
REMARK  164  A    between atoms: _405  and  _406
REMARK  165  A    between atoms: _411  and  _412
REMARK  166  A    between atoms: _414  and  _416
REMARK  167  A    between atoms: _416  and  _417
REMARK  168  A    between atoms: _416  and  _419
REMARK  169  A    between atoms: _419  and  _420
REMARK  170  A    between atoms: _420  and  _421
REMARK  171  A    between atoms: _421  and  _422
REMARK  172  A    between atoms: _422  and  _423
REMARK  173  A    between atoms: _427  and  _429
REMARK  174  A    between atoms: _429  and  _430
REMARK  175  A    between atoms: _429  and  _432
REMARK  176  A    between atoms: _432  and  _433
REMARK  177  A    between atoms: _438  and  _439
REMARK  178  A    between atoms: _441  and  _443
REMARK  179  A    between atoms: _443  and  _444
REMARK  180  A    between atoms: _443  and  _446
REMARK  181  A    between atoms: _446  and  _447
REMARK  182  A    between atoms: _450  and  _452
REMARK  183  A    between atoms: _452  and  _453
REMARK  184  A    between atoms: _452  and  _455
REMARK  185  A    between atoms: _455  and  _456
REMARK  186  A    between atoms: _459  and  _461
REMARK  187  A    between atoms: _461  and  _462
REMARK  188  A    between atoms: _461  and  _464
REMARK  189  A    between atoms: _467  and  _469
REMARK  190  A    between atoms: _469  and  _470
REMARK  191  A    between atoms: _469  and  _472
REMARK  192  A    between atoms: _472  and  _473
REMARK  193  A    between atoms: _475  and  _477
REMARK  194  A    between atoms: _477  and  _478
REMARK  195  A    between atoms: _481  and  _483
REMARK  196  A    between atoms: _483  and  _484
REMARK  197  A    between atoms: _486  and  _488
REMARK  198  A    between atoms: _488  and  _489
REMARK  199  A    between atoms: _488  and  _491
REMARK  200  A    between atoms: _491  and  _492
REMARK  201  A    between atoms: _497  and  _499
REMARK  202  A    between atoms: _499  and  _500
REMARK  203  A    between atoms: _499  and  _502
REMARK  204  A    between atoms: _502  and  _503
REMARK  205  A    between atoms: _506  and  _508
REMARK  206  A    between atoms: _508  and  _509
REMARK  207  A    between atoms: _508  and  _511
REMARK  208  A    between atoms: _511  and  _512
REMARK  209  A    between atoms: _515  and  _517
REMARK  210  A    between atoms: _517  and  _518
REMARK  211  A    between atoms: _517  and  _520
REMARK  212  A    between atoms: _520  and  _521
REMARK  213  A    between atoms: _524  and  _526
REMARK  214  A    between atoms: _526  and  _527
REMARK  215  A    between atoms: _526  and  _529
REMARK  216  A    between atoms: _529  and  _530
REMARK  217  A    between atoms: _530  and  _531
REMARK  218  A    between atoms: _536  and  _538
REMARK  219  A    between atoms: _538  and  _539
REMARK  220  A    between atoms: _538  and  _541
REMARK  221  A    between atoms: _541  and  _542
REMARK  222  A    between atoms: _545  and  _547
REMARK  223  A    between atoms: _547  and  _548
REMARK  224  A    between atoms: _547  and  _550
REMARK  225  A    between atoms: _550  and  _551
REMARK  226  A    between atoms: _551  and  _552
REMARK  227  A    between atoms: _555  and  _557
REMARK  228  A    between atoms: _557  and  _558
REMARK  229  A    between atoms: _557  and  _560
REMARK  230  A    between atoms: _560  and  _561
REMARK  231  A    between atoms: _566  and  _568
REMARK  232  A    between atoms: _568  and  _569
REMARK  233  A    between atoms: _568  and  _571
REMARK  234  A    between atoms: _571  and  _572
REMARK  235  A    between atoms: _574  and  _576
REMARK  236  A    between atoms: _576  and  _577
REMARK  237  A    between atoms: _576  and  _579
REMARK  238  A    between atoms: _579  and  _580
REMARK  239  A    between atoms: _580  and  _581
REMARK  240  A    between atoms: _586  and  _588
REMARK  241  A    between atoms: _588  and  _589
REMARK  242  A    between atoms: _588  and  _591
REMARK  243  A    between atoms: _591  and  _592
REMARK  244  A    between atoms: _597  and  _598
REMARK  245  A    between atoms: _600  and  _602
REMARK  246  A    between atoms: _602  and  _603
REMARK  247  A    between atoms: _602  and  _605
REMARK  248  A    between atoms: _605  and  _606
REMARK  249  A    between atoms: _606  and  _607
REMARK  250  A    between atoms: _607  and  _608
REMARK  251  A    between atoms: _617  and  _619
REMARK  252  A    between atoms: _619  and  _620
REMARK  253  A    between atoms: _619  and  _622
REMARK  254  A    between atoms: _622  and  _623
REMARK  255  A    between atoms: _626  and  _628
REMARK  256  A    between atoms: _628  and  _629
REMARK  257  A    between atoms: _628  and  _631
REMARK  258  A    between atoms: _631  and  _632
REMARK  259  A    between atoms: _634  and  _636
REMARK  260  A    between atoms: _636  and  _637
REMARK  261  A    between atoms: _636  and  _639
REMARK  262  A    between atoms: _639  and  _640
REMARK  263  A    between atoms: _645  and  _647
REMARK  264  A    between atoms: _647  and  _648
REMARK  265  A    between atoms: _647  and  _650
REMARK  266  A    between atoms: _650  and  _651
REMARK  267  A    between atoms: _651  and  _652
REMARK  268  A    between atoms: _652  and  _653
REMARK  269  A    between atoms: _653  and  _654
REMARK  270  A    between atoms: _658  and  _660
REMARK  271  A    between atoms: _660  and  _661
REMARK  272  A    between atoms: _660  and  _663
REMARK  273  A    between atoms: _663  and  _664
REMARK  274  A    between atoms: _667  and  _669
REMARK  275  A    between atoms: _669  and  _670
REMARK  276  A    between atoms: _669  and  _672
REMARK  277  A    between atoms: _672  and  _673
REMARK  278  A    between atoms: _676  and  _678
REMARK  279  A    between atoms: _678  and  _679
REMARK  280  A    between atoms: _678  and  _681
REMARK  281  A    between atoms: _684  and  _686
REMARK  282  A    between atoms: _686  and  _687
REMARK  283  A    between atoms: _686  and  _689
REMARK  284  A    between atoms: _689  and  _690
REMARK                            x       y       z     vdW  Elec       q    Type
REMARK                         _______ _______ _______ _____ _____    ______ ____
ROOT
ATOM      1  CA  ARG A   8      55.536   3.947   2.685  0.00  0.00    +0.149 C 
ENDROOT
BRANCH   1   2
ATOM      2  C   ARG A   8      55.976   5.162   1.881  0.00  0.00    +0.241 C 
ATOM      3  O   ARG A   8      55.887   6.324   2.362  0.00  0.00    -0.273 OA
ATOM      4  N   SER A   9      56.402   4.905   0.639  0.00  0.00    -0.295 N 
ATOM      5  H   SER A   9      56.408   3.926   0.289  0.00  0.00    +0.150 HD
BRANCH   4   6
ATOM      6  CA  SER A   9      56.865   6.002  -0.243  0.00  0.00    +0.178 C 
BRANCH   6   7
ATOM      7  C   SER A   9      55.733   6.916  -0.695  0.00  0.00    +0.243 C 
ATOM      8  N   ASN A  10      54.490   6.472  -0.509  0.00  0.00    -0.297 N 
ATOM      9  H   ASN A  10      54.349   5.556  -0.038  0.00  0.00    +0.150 HD
ATOM     10  O   SER A   9      55.998   8.028  -1.188  0.00  0.00    -0.273 OA
BRANCH   8  11
ATOM     11  CA  ASN A  10      53.327   7.224  -0.942  0.00  0.00    +0.158 C 
BRANCH  11  12
ATOM     12  C   ASN A  10      53.318   8.511  -0.131  0.00  0.00    +0.241 C 
ATOM     13  N   GLN A  11      53.966   8.496   1.041  0.00  0.00    -0.297 N 
ATOM     14  H   GLN A  11      54.473   7.640   1.343  0.00  0.00    +0.150 HD
ATOM     15  O   ASN A  10      52.830   9.538  -0.593  0.00  0.00    -0.273 OA
BRANCH  13  16
ATOM     16  CA  GLN A  11      53.962   9.675   1.891  0.00  0.00    +0.149 C 
BRANCH  16  17
ATOM     17  C   GLN A  11      54.772  10.809   1.286  0.00  0.00    +0.241 C 
ATOM     18  O   GLN A  11      54.455  11.983   1.497  0.00  0.00    -0.273 OA
ATOM     19  N   SER A  12      55.806  10.491   0.521  0.00  0.00    -0.295 N 
ATOM     20  H   SER A  12      56.061   9.492   0.388  0.00  0.00    +0.150 HD
BRANCH  19  21
ATOM     21  CA  SER A  12      56.591  11.534  -0.137  0.00  0.00    +0.178 C 
BRANCH  21  22
ATOM     22  C   SER A  12      56.097  11.779  -1.568  0.00  0.00    +0.243 C 
ATOM     23  N   PHE A  13      55.347  10.828  -2.114  0.00  0.00    -0.298 N 
ATOM     24  H   PHE A  13      55.101   9.984  -1.559  0.00  0.00    +0.150 HD
ATOM     25  O   SER A  12      56.419  12.799  -2.176  0.00  0.00    -0.273 OA
BRANCH  23  26
ATOM     26  CA  PHE A  13      54.865  10.958  -3.488  0.00  0.00    +0.141 C 
BRANCH  26  27
ATOM     27  C   PHE A  13      53.934  12.157  -3.646  0.00  0.00    +0.227 C 
ATOM     28  O   PHE A  13      53.118  12.417  -2.785  0.00  0.00    -0.286 OA
ENDBRANCH  26  27
BRANCH  26  29
ATOM     29  CB  PHE A  13      54.160   9.685  -3.965  0.00  0.00    +0.054 C 
BRANCH  29  30
ATOM     30  CG  PHE A  13      53.816   9.704  -5.437  0.00  0.00    -0.020 A 
ATOM     31  CD2 PHE A  13      52.518  10.046  -5.861  0.00  0.00    -0.004 A 
ATOM     32  CE2 PHE A  13      52.203  10.076  -7.219  0.00  0.00    -0.000 A 
ATOM     33  CZ  PHE A  13      53.172   9.761  -8.168  0.00  0.00    -0.000 A 
ATOM     34  CE1 PHE A  13      54.455   9.423  -7.776  0.00  0.00    -0.000 A 
ATOM     35  CD1 PHE A  13      54.778   9.387  -6.402  0.00  0.00    -0.004 A 
ENDBRANCH  29  30
ENDBRANCH  26  29
ENDBRANCH  23  26
ENDBRANCH  21  22
BRANCH  21  36
ATOM     36  CB  SER A  12      58.076  11.168  -0.146  0.00  0.00    +0.166 C 
BRANCH  36  37
ATOM     37  OG  SER A  12      58.295  10.019  -0.938  0.00  0.00    -0.380 OA
ATOM     38  H   SER A  12      57.778   9.261  -0.567  0.00  0.00    +0.211 HD
ENDBRANCH  36  37
ENDBRANCH  21  36
ENDBRANCH  19  21
ENDBRANCH  16  17
BRANCH  16  39
ATOM     39  CB  GLN A  11      54.437   9.302   3.301  0.00  0.00    +0.039 C 
BRANCH  39  40
ATOM     40  CG  GLN A  11      54.499  10.505   4.275  0.00  0.00    +0.087 C 
BRANCH  40  41
ATOM     41  CD  GLN A  11      54.526  10.108   5.736  0.00  0.00    +0.219 C 
ATOM     42  OE1 GLN A  11      54.726  10.969   6.625  0.00  0.00    -0.275 OA
ATOM     43  NE2 GLN A  11      54.304   8.807   6.015  0.00  0.00    -0.329 N 
ATOM     44 HE21 GLN A  11      54.294   8.481   7.003  0.00  0.00    +0.145 HD
ATOM     45 HE22 GLN A  11      54.143   8.130   5.242  0.00  0.00    +0.145 HD
ENDBRANCH  40  41
ENDBRANCH  39  40
ENDBRANCH  16  39
ENDBRANCH  13  16
ENDBRANCH  11  12
BRANCH  11  46
ATOM     46  CB  ASN A  10      52.042   6.411  -0.790  0.00  0.00    +0.114 C 
BRANCH  46  47
ATOM     47  CG  ASN A  10      50.841   7.055  -1.499  0.00  0.00    +0.222 C 
ATOM     48  OD1 ASN A  10      49.863   7.433  -0.852  0.00  0.00    -0.275 OA
ATOM     49  ND2 ASN A  10      50.916   7.181  -2.825  0.00  0.00    -0.329 N 
ATOM     50 HD21 ASN A  10      51.761   6.848  -3.332  0.00  0.00    +0.145 HD
ATOM     51 HD22 ASN A  10      50.130   7.612  -3.352  0.00  0.00    +0.145 HD
ENDBRANCH  46  47
ENDBRANCH  11  46
ENDBRANCH   8  11
ENDBRANCH   6   7
BRANCH   6  52
ATOM     52  CB  SER A   9      57.642   5.480  -1.450  0.00  0.00    +0.166 C 
BRANCH  52  53
ATOM     53  OG  SER A   9      56.764   5.057  -2.480  0.00  0.00    -0.380 OA
ATOM     54  H   SER A   9      56.183   4.331  -2.139  0.00  0.00    +0.211 HD
ENDBRANCH  52  53
ENDBRANCH   6  52
ENDBRANCH   4   6
ENDBRANCH   1   2
BRANCH   1  56
ATOM     55  C   LEU A   7      54.029   2.980   1.033  0.00  0.00    +0.241 C 
ATOM     56  N   ARG A   8      55.143   2.854   1.758  0.00  0.00    -0.297 N 
ATOM     57  H   ARG A   8      55.730   1.999   1.675  0.00  0.00    +0.150 HD
ATOM     58  O   LEU A   7      53.382   4.073   0.959  0.00  0.00    -0.273 OA
BRANCH  55  59
ATOM     59  CA  LEU A   7      53.598   1.761   0.244  0.00  0.00    +0.149 C 
BRANCH  59  61
ATOM     60  C   MET A   6      55.290   1.895  -1.551  0.00  0.00    +0.241 C 
ATOM     61  N   LEU A   7      54.675   1.194  -0.601  0.00  0.00    -0.297 N 
ATOM     62  H   LEU A   7      54.963   0.207  -0.445  0.00  0.00    +0.150 HD
ATOM     63  O   MET A   6      54.983   3.063  -1.834  0.00  0.00    -0.273 OA
BRANCH  60  64
ATOM     64  CA  MET A   6      56.458   1.208  -2.273  0.00  0.00    +0.149 C 
BRANCH  64  67
ATOM     65  C   ILE A   5      57.984   1.293  -0.379  0.00  0.00    +0.241 C 
ATOM     66  O   ILE A   5      57.833   2.538  -0.325  0.00  0.00    -0.273 OA
ATOM     67  N   MET A   6      57.377   0.563  -1.297  0.00  0.00    -0.297 N 
ATOM     68  H   MET A   6      57.541  -0.463  -1.338  0.00  0.00    +0.150 HD
BRANCH  65  69
ATOM     69  CA  ILE A   5      58.889   0.550   0.622  0.00  0.00    +0.149 C 
BRANCH  69  72
ATOM     70  C   VAL A   4      57.038  -0.585   1.691  0.00  0.00    +0.241 C 
ATOM     71  O   VAL A   4      56.565   0.513   2.020  0.00  0.00    -0.273 OA
ATOM     72  N   ILE A   5      58.190  -0.684   1.034  0.00  0.00    -0.297 N 
ATOM     73  H   ILE A   5      58.593  -1.617   0.813  0.00  0.00    +0.150 HD
BRANCH  70  74
ATOM     74  CA  VAL A   4      56.290  -1.867   2.032  0.00  0.00    +0.149 C 
BRANCH  74  76
ATOM     75  C   GLU A   3      55.894  -2.618  -0.238  0.00  0.00    +0.241 C 
ATOM     76  N   VAL A   4      56.456  -2.874   0.946  0.00  0.00    -0.297 N 
ATOM     77  H   VAL A   4      56.993  -3.750   1.105  0.00  0.00    +0.150 HD
ATOM     78  O   GLU A   3      55.221  -1.618  -0.471  0.00  0.00    -0.273 OA
BRANCH  75  79
ATOM     79  CA  GLU A   3      56.107  -3.638  -1.328  0.00  0.00    +0.149 C 
BRANCH  79  81
ATOM     80  C   ILE A   2      58.499  -3.243  -1.684  0.00  0.00    +0.241 C 
ATOM     81  N   GLU A   3      57.510  -4.046  -1.322  0.00  0.00    -0.297 N 
ATOM     82  H   GLU A   3      57.743  -5.013  -1.019  0.00  0.00    +0.150 HD
ATOM     83  O   ILE A   2      58.324  -2.047  -1.952  0.00  0.00    -0.273 OA
BRANCH  80  84
ATOM     84  CA  ILE A   2      59.924  -3.847  -1.663  0.00  0.00    +0.148 C 
BRANCH  84  87
ATOM     85  C   ALA A   1      59.993  -4.389   0.696  0.00  0.00    +0.238 C 
ATOM     86  O   ALA A   1      59.690  -3.203   0.990  0.00  0.00    -0.274 OA
ATOM     87  N   ILE A   2      60.111  -4.823  -0.569  0.00  0.00    -0.297 N 
ATOM     88  H   ILE A   2      60.328  -5.819  -0.774  0.00  0.00    +0.150 HD
BRANCH  85  89
ATOM     89  CA  ALA A   1      60.286  -5.375   1.812  0.00  0.00    +0.145 C 
ATOM     90  CB  ALA A   1      61.792  -5.685   1.864  0.00  0.00    +0.028 C 
BRANCH  89  91
ATOM     91  N   ALA A   1      59.477  -6.621   1.716  0.00  0.00    -0.238 NA
ATOM     92  H   ALA A   1      59.939  -7.546   1.826  0.00  0.00    +0.142 HD
ENDBRANCH  89  91
ENDBRANCH  85  89
ENDBRANCH  84  87
BRANCH  84  93
ATOM     93  CB  ILE A   2      60.381  -4.351  -3.091  0.00  0.00    +0.027 C 
ATOM     94  CG2 ILE A   2      59.357  -5.288  -3.678  0.00  0.00    +0.002 C 
BRANCH  93  95
ATOM     95  CG1 ILE A   2      60.635  -3.155  -4.043  0.00  0.00    +0.002 C 
ATOM     96  CD1 ILE A   2      61.808  -2.331  -3.668  0.00  0.00    +0.000 C 
ENDBRANCH  93  95
ENDBRANCH  84  93
ENDBRANCH  80  84
ENDBRANCH  79  81
BRANCH  79  97
ATOM     97  CB  GLU A   3      55.183  -4.793  -1.017  0.00  0.00    +0.041 C 
BRANCH  97  98
ATOM     98  CG  GLU A   3      55.215  -5.872  -2.125  0.00  0.00    +0.116 C 
BRANCH  98  99
ATOM     99  CD  GLU A   3      54.271  -6.999  -1.794  0.00  0.00    +0.365 C 
ATOM    100  OE2 GLU A   3      53.315  -6.792  -1.025  0.00  0.00    -0.246 OA
ATOM    101  OE1 GLU A   3      54.521  -8.114  -2.286  0.00  0.00    -0.246 OA
ENDBRANCH  98  99
ENDBRANCH  97  98
ENDBRANCH  79  97
ENDBRANCH  75  79
ENDBRANCH  74  76
BRANCH  74 102
ATOM    102  CB  VAL A   4      56.690  -2.411   3.422  0.00  0.00    +0.027 C 
ATOM    103  CG2 VAL A   4      56.312  -1.472   4.518  0.00  0.00    +0.002 C 
ATOM    104  CG1 VAL A   4      56.032  -3.787   3.713  0.00  0.00    +0.002 C 
ENDBRANCH  74 102
ENDBRANCH  70  74
ENDBRANCH  69  72
BRANCH  69 105
ATOM    105  CB  ILE A   5      60.291   0.255   0.039  0.00  0.00    +0.027 C 
ATOM    106  CG2 ILE A   5      60.931   1.544  -0.485  0.00  0.00    +0.002 C 
BRANCH 105 107
ATOM    107  CG1 ILE A   5      61.208  -0.346   1.112  0.00  0.00    +0.002 C 
ATOM    108  CD1 ILE A   5      62.499  -1.033   0.598  0.00  0.00    +0.000 C 
ENDBRANCH 105 107
ENDBRANCH  69 105
ENDBRANCH  65  69
ENDBRANCH  64  67
BRANCH  64 109
ATOM    109  CB  MET A   6      55.950   0.197  -3.305  0.00  0.00    +0.041 C 
BRANCH 109 110
ATOM    110  CG  MET A   6      56.990  -0.120  -4.382  0.00  0.00    +0.060 C 
BRANCH 110 111
ATOM    111  SD  MET A   6      56.503  -1.558  -5.362  0.00  0.00    -0.139 S 
ATOM    112  CE  MET A   6      57.939  -1.695  -6.408  0.00  0.00    +0.069 C 
ENDBRANCH 110 111
ENDBRANCH 109 110
ENDBRANCH  64 109
ENDBRANCH  60  64
ENDBRANCH  59  61
BRANCH  59 113
ATOM    113  CB  LEU A   7      53.046   0.670   1.219  0.00  0.00    +0.029 C 
BRANCH 113 114
ATOM    114  CG  LEU A   7      52.038  -0.283   0.668  0.00  0.00    +0.002 C 
ATOM    115  CD2 LEU A   7      51.866  -1.457   1.675  0.00  0.00    +0.000 C 
ATOM    116  CD1 LEU A   7      50.684   0.364   0.359  0.00  0.00    +0.000 C 
ENDBRANCH 113 114
ENDBRANCH  59 113
ENDBRANCH  55  59
ENDBRANCH   1  56
BRANCH   1 117
ATOM    117  CB  ARG A   8      56.642   3.487   3.641  0.00  0.00    +0.033 C 
BRANCH 117 118
ATOM    118  CG  ARG A   8      58.062   3.410   3.054  0.00  0.00    +0.045 C 
BRANCH 118 119
ATOM    119  CD  ARG A   8      58.954   2.411   3.863  0.00  0.00    +0.174 C 
BRANCH 119 120
ATOM    120  NE  ARG A   8      58.996   2.727   5.310  0.00  0.00    -0.265 N 
ATOM    121  HE  ARG A   8      58.334   2.224   5.934  0.00  0.00    +0.259 HD
ATOM    122  CZ  ARG A   8      59.825   3.613   5.869  0.00  0.00    +0.342 C 
ATOM    123  NH2 ARG A   8      59.758   3.864   7.182  0.00  0.00    -0.292 N 
ATOM    124 HH21 ARG A   8      59.059   3.369   7.771  0.00  0.00    +0.255 HD
ATOM    125 HH22 ARG A   8      60.405   4.554   7.613  0.00  0.00    +0.255 HD
ATOM    126  NH1 ARG A   8      60.720   4.255   5.120  0.00  0.00    -0.292 N 
ATOM    127 HH11 ARG A   8      61.365   4.944   5.557  0.00  0.00    +0.255 HD
ATOM    128 HH12 ARG A   8      60.774   4.067   4.099  0.00  0.00    +0.255 HD
ENDBRANCH 119 120
ENDBRANCH 118 119
ENDBRANCH 117 118
ENDBRANCH   1 117
TORSDOF 54
REMARK  Name = ../refined-set-2016/2o4j/2o4j_pocket.pdb
REMARK  284 active torsions:
REMARK  status: ('A' for Active; 'I' for Inactive)
REMARK    1  A    between atoms: _1  and  _3
REMARK    2  A    between atoms: _3  and  _4
REMARK    3  A    between atoms: _3  and  _6
REMARK    4  A    between atoms: _6  and  _7
REMARK    5  A    between atoms: _10  and  _12
REMARK    6  A    between atoms: _12  and  _13
REMARK    7  A    between atoms: _12  and  _15
REMARK    8  A    between atoms: _15  and  _16
REMARK    9  A    between atoms: _21  and  _22
REMARK   10  A    between atoms: _24  and  _26
REMARK   11  A    between atoms: _26  and  _27
REMARK   12  A    between atoms: _26  and  _29
REMARK   13  A    between atoms: _29  and  _30
REMARK   14  A    between atoms: _34  and  _35
REMARK   15  A    between atoms: _40  and  _42
REMARK   16  A    between atoms: _42  and  _43
REMARK   17  A    between atoms: _42  and  _45
REMARK   18  A    between atoms: _45  and  _46
REMARK   19  A    between atoms: _51  and  _52
REMARK   20  A    between atoms: _54  and  _56
REMARK   21  A    between atoms: _56  and  _57
REMARK   22  A    between atoms: _56  and  _59
REMARK   23  A    between atoms: _59  and  _60
REMARK   24  A    between atoms: _66  and  _68
REMARK   25  A    between atoms: _68  and  _69
REMARK   26  A    between atoms: _68  and  _71
REMARK   27  A    between atoms: _71  and  _72
REMARK   28  A    between atoms: _78  and  _80
REMARK   29  A    between atoms: _80  and  _81
REMARK   30  A    between atoms: _80  and  _83
REMARK   31  A    between atoms: _83  and  _84
REMARK   32  A    between atoms: _84  and  _85
REMARK   33  A    between atoms: _85  and  _86
REMARK   34  A    between atoms: _95  and  _97
REMARK   35  A    between atoms: _97  and  _98
REMARK   36  A    between atoms: _97  and  _100
REMARK   37  A    between atoms: _100  and  _101
REMARK   38  A    between atoms: _101  and  _102
REMARK   39  A    between atoms: _104  and  _106
REMARK   40  A    between atoms: _106  and  _107
REMARK   41  A    between atoms: _106  and  _109
REMARK   42  A    between atoms: _109  and  _110
REMARK   43  A    between atoms: _114  and  _115
REMARK   44  A    between atoms: _120  and  _122
REMARK   45  A    between atoms: _122  and  _123
REMARK   46  A    between atoms: _122  and  _125
REMARK   47  A    between atoms: _125  and  _126
REMARK   48  A    between atoms: _131  and  _133
REMARK   49  A    between atoms: _133  and  _134
REMARK   50  A    between atoms: _133  and  _136
REMARK   51  A    between atoms: _136  and  _137
REMARK   52  A    between atoms: _140  and  _142
REMARK   53  A    between atoms: _142  and  _143
REMARK   54  A    between atoms: _146  and  _148
REMARK   55  A    between atoms: _148  and  _149
REMARK   56  A    between atoms: _148  and  _151
REMARK   57  A    between atoms: _151  and  _152
REMARK   58  A    between atoms: _155  and  _157
REMARK   59  A    between atoms: _157  and  _158
REMARK   60  A    between atoms: _157  and  _160
REMARK   61  A    between atoms: _160  and  _161
REMARK   62  A    between atoms: _164  and  _166
REMARK   63  A    between atoms: _166  and  _167
REMARK   64  A    between atoms: _166  and  _169
REMARK   65  A    between atoms: _172  and  _174
REMARK   66  A    between atoms: _174  and  _175
REMARK   67  A    between atoms: _174  and  _177
REMARK   68  A    between atoms: _177  and  _178
REMARK   69  A    between atoms: _180  and  _182
REMARK   70  A    between atoms: _182  and  _183
REMARK   71  A    between atoms: _182  and  _185
REMARK   72  A    between atoms: _185  and  _186
REMARK   73  A    between atoms: _191  and  _192
REMARK   74  A    between atoms: _194  and  _196
REMARK   75  A    between atoms: _196  and  _197
REMARK   76  A    between atoms: _196  and  _199
REMARK   77  A    between atoms: _199  and  _200
REMARK   78  A    between atoms: _202  and  _204
REMARK   79  A    between atoms: _204  and  _205
REMARK   80  A    between atoms: _204  and  _207
REMARK   81  A    between atoms: _207  and  _208
REMARK   82  A    between atoms: _211  and  _213
REMARK   83  A    between atoms: _213  and  _214
REMARK   84  A    between atoms: _213  and  _216
REMARK   85  A    between atoms: _216  and  _217
REMARK   86  A    between atoms: _217  and  _218
REMARK   87  A    between atoms: _218  and  _219
REMARK   88  A    between atoms: _219  and  _220
REMARK   89  A    between atoms: _224  and  _226
REMARK   90  A    between atoms: _226  and  _227
REMARK   91  A    between atoms: _226  and  _229
REMARK   92  A    between atoms: _232  and  _234
REMARK   93  A    between atoms: _234  and  _235
REMARK   94  A    between atoms: _238  and  _240
REMARK   95  A    between atoms: _240  and  _241
REMARK   96  A    between atoms: _240  and  _243
REMARK   97  A    between atoms: _243  and  _244
REMARK   98  A    between atoms: _247  and  _249
REMARK   99  A    between atoms: _249  and  _250
REMARK  100  A    between atoms: _249  and  _252
REMARK  101  A    between atoms: _252  and  _253
REMARK  102  A    between atoms: _253  and  _254
REMARK  103  A    between atoms: _257  and  _259
REMARK  104  A    between atoms: _259  and  _260
REMARK  105  A    between atoms: _259  and  _262
REMARK  106  A    between atoms: _265  and  _267
REMARK  107  A    between atoms: _267  and  _268
REMARK  108  A    between atoms: _267  and  _270
REMARK  109  A    between atoms: _270  and  _271
REMARK  110  A    between atoms: _274  and  _276
REMARK  111  A    between atoms: _276  and  _277
REMARK  112  A    between atoms: _276  and  _279
REMARK  113  A    between atoms: _279  and  _280
REMARK  114  A    between atoms: _280  and  _281
REMARK  115  A    between atoms: _283  and  _285
REMARK  116  A    between atoms: _285  and  _286
REMARK  117  A    between atoms: _285  and  _288
REMARK  118  A    between atoms: _288  and  _289
REMARK  119  A    between atoms: _292  and  _294
REMARK  120  A    between atoms: _294  and  _295
REMARK  121  A    between atoms: _294  and  _297
REMARK  122  A    between atoms: _297  and  _298
REMARK  123  A    between atoms: _298  and  _299
REMARK  124  A    between atoms: _299  and  _300
REMARK  125  A    between atoms: _309  and  _311
REMARK  126  A    between atoms: _311  and  _312
REMARK  127  A    between atoms: _311  and  _314
REMARK  128  A    between atoms: _314  and  _315
REMARK  129  A    between atoms: _317  and  _319
REMARK  130  A    between atoms: _319  and  _320
REMARK  131  A    between atoms: _319  and  _322
REMARK  132  A    between atoms: _322  and  _323
REMARK  133  A    between atoms: _328  and  _330
REMARK  134  A    between atoms: _330  and  _331
REMARK  135  A    between atoms: _330  and  _333
REMARK  136  A    between atoms: _333  and  _334
REMARK  137  A    between atoms: _334  and  _335
REMARK  138  A    between atoms: _340  and  _342
REMARK  139  A    between atoms: _342  and  _343
REMARK  140  A    between atoms: _342  and  _345
REMARK  141  A    between atoms: _345  and  _346
REMARK  142  A    between atoms: _348  and  _350
REMARK  143  A    between atoms: _350  and  _351
REMARK  144  A    between atoms: _350  and  _353
REMARK  145  A    between atoms: _353  and  _354
REMARK  146  A    between atoms: _360  and  _362
REMARK  147  A    between atoms: _362  and  _363
REMARK  148  A    between atoms: _362  and  _365
REMARK  149  A    between atoms: _365  and  _366
REMARK  150  A    between atoms: _368  and  _370
REMARK  151  A    between atoms: _370  and  _371
REMARK  152  A    between atoms: _370  and  _373
REMARK  153  A    between atoms: _373  and  _374
REMARK  154  A    between atoms: _384  and  _386
REMARK  155  A    between atoms: _386  and  _387
REMARK  156  A    between atoms: _386  and  _389
REMARK  157  A    between atoms: _389  and  _390
REMARK  158  A    between atoms: _393  and  _395
REMARK  159  A    between atoms: _395  and  _396
REMARK  160  A    between atoms: _395  and  _398
REMARK  161  A    between atoms: _400  and  _402
REMARK  162  A    between atoms: _402  and  _403
REMARK  163  A    between atoms: _402  and  _405
REMARK  164  A    between atoms: _405  and  _406
REMARK  165  A    between atoms: _411  and  _412
REMARK  166  A    between atoms: _414  and  _416
REMARK  167  A    between atoms: _416  and  _417
REMARK  168  A    between atoms: _416  and  _419
REMARK  169  A    between atoms: _419  and  _420
REMARK  170  A    between atoms: _420  and  _421
REMARK  171  A    between atoms: _421  and  _422
REMARK  172  A    between atoms: _422  and  _423
REMARK  173  A    between atoms: _427  and  _429
REMARK  174  A    between atoms: _429  and  _430
REMARK  175  A    between atoms: _429  and  _432
REMARK  176  A    between atoms: _432  and  _433
REMARK  177  A    between atoms: _438  and  _439
REMARK  178  A    between atoms: _441  and  _443
REMARK  179  A    between atoms: _443  and  _444
REMARK  180  A    between atoms: _443  and  _446
REMARK  181  A    between atoms: _446  and  _447
REMARK  182  A    between atoms: _450  and  _452
REMARK  183  A    between atoms: _452  and  _453
REMARK  184  A    between atoms: _452  and  _455
REMARK  185  A    between atoms: _455  and  _456
REMARK  186  A    between atoms: _459  and  _461
REMARK  187  A    between atoms: _461  and  _462
REMARK  188  A    between atoms: _461  and  _464
REMARK  189  A    between atoms: _467  and  _469
REMARK  190  A    between atoms: _469  and  _470
REMARK  191  A    between atoms: _469  and  _472
REMARK  192  A    between atoms: _472  and  _473
REMARK  193  A    between atoms: _475  and  _477
REMARK  194  A    between atoms: _477  and  _478
REMARK  195  A    between atoms: _481  and  _483
REMARK  196  A    between atoms: _483  and  _484
REMARK  197  A    between atoms: _486  and  _488
REMARK  198  A    between atoms: _488  and  _489
REMARK  199  A    between atoms: _488  and  _491
REMARK  200  A    between atoms: _491  and  _492
REMARK  201  A    between atoms: _497  and  _499
REMARK  202  A    between atoms: _499  and  _500
REMARK  203  A    between atoms: _499  and  _502
REMARK  204  A    between atoms: _502  and  _503
REMARK  205  A    between atoms: _506  and  _508
REMARK  206  A    between atoms: _508  and  _509
REMARK  207  A    between atoms: _508  and  _511
REMARK  208  A    between atoms: _511  and  _512
REMARK  209  A    between atoms: _515  and  _517
REMARK  210  A    between atoms: _517  and  _518
REMARK  211  A    between atoms: _517  and  _520
REMARK  212  A    between atoms: _520  and  _521
REMARK  213  A    between atoms: _524  and  _526
REMARK  214  A    between atoms: _526  and  _527
REMARK  215  A    between atoms: _526  and  _529
REMARK  216  A    between atoms: _529  and  _530
REMARK  217  A    between atoms: _530  and  _531
REMARK  218  A    between atoms: _536  and  _538
REMARK  219  A    between atoms: _538  and  _539
REMARK  220  A    between atoms: _538  and  _541
REMARK  221  A    between atoms: _541  and  _542
REMARK  222  A    between atoms: _545  and  _547
REMARK  223  A    between atoms: _547  and  _548
REMARK  224  A    between atoms: _547  and  _550
REMARK  225  A    between atoms: _550  and  _551
REMARK  226  A    between atoms: _551  and  _552
REMARK  227  A    between atoms: _555  and  _557
REMARK  228  A    between atoms: _557  and  _558
REMARK  229  A    between atoms: _557  and  _560
REMARK  230  A    between atoms: _560  and  _561
REMARK  231  A    between atoms: _566  and  _568
REMARK  232  A    between atoms: _568  and  _569
REMARK  233  A    between atoms: _568  and  _571
REMARK  234  A    between atoms: _571  and  _572
REMARK  235  A    between atoms: _574  and  _576
REMARK  236  A    between atoms: _576  and  _577
REMARK  237  A    between atoms: _576  and  _579
REMARK  238  A    between atoms: _579  and  _580
REMARK  239  A    between atoms: _580  and  _581
REMARK  240  A    between atoms: _586  and  _588
REMARK  241  A    between atoms: _588  and  _589
REMARK  242  A    between atoms: _588  and  _591
REMARK  243  A    between atoms: _591  and  _592
REMARK  244  A    between atoms: _597  and  _598
REMARK  245  A    between atoms: _600  and  _602
REMARK  246  A    between atoms: _602  and  _603
REMARK  247  A    between atoms: _602  and  _605
REMARK  248  A    between atoms: _605  and  _606
REMARK  249  A    between atoms: _606  and  _607
REMARK  250  A    between atoms: _607  and  _608
REMARK  251  A    between atoms: _617  and  _619
REMARK  252  A    between atoms: _619  and  _620
REMARK  253  A    between atoms: _619  and  _622
REMARK  254  A    between atoms: _622  and  _623
REMARK  255  A    between atoms: _626  and  _628
REMARK  256  A    between atoms: _628  and  _629
REMARK  257  A    between atoms: _628  and  _631
REMARK  258  A    between atoms: _631  and  _632
REMARK  259  A    between atoms: _634  and  _636
REMARK  260  A    between atoms: _636  and  _637
REMARK  261  A    between atoms: _636  and  _639
REMARK  262  A    between atoms: _639  and  _640
REMARK  263  A    between atoms: _645  and  _647
REMARK  264  A    between atoms: _647  and  _648
REMARK  265  A    between atoms: _647  and  _650
REMARK  266  A    between atoms: _650  and  _651
REMARK  267  A    between atoms: _651  and  _652
REMARK  268  A    between atoms: _652  and  _653
REMARK  269  A    between atoms: _653  and  _654
REMARK  270  A    between atoms: _658  and  _660
REMARK  271  A    between atoms: _660  and  _661
REMARK  272  A    between atoms: _660  and  _663
REMARK  273  A    between atoms: _663  and  _664
REMARK  274  A    between atoms: _667  and  _669
REMARK  275  A    between atoms: _669  and  _670
REMARK  276  A    between atoms: _669  and  _672
REMARK  277  A    between atoms: _672  and  _673
REMARK  278  A    between atoms: _676  and  _678
REMARK  279  A    between atoms: _678  and  _679
REMARK  280  A    between atoms: _678  and  _681
REMARK  281  A    between atoms: _684  and  _686
REMARK  282  A    between atoms: _686  and  _687
REMARK  283  A    between atoms: _686  and  _689
REMARK  284  A    between atoms: _689  and  _690
REMARK                            x       y       z     vdW  Elec       q    Type
REMARK                         _______ _______ _______ _____ _____    ______ ____
ROOT
ATOM      1  CA  TRP A   2      58.735  11.423  -4.767  0.00  0.00    +0.153 C 
ENDROOT
BRANCH   1   4
ATOM      2  C   SER A   1      57.484  12.149  -6.715  0.00  0.00    +0.241 C 
ATOM      3  O   SER A   1      56.513  12.485  -6.048  0.00  0.00    -0.274 OA
ATOM      4  N   TRP A   2      58.588  11.614  -6.189  0.00  0.00    -0.297 N 
ATOM      5  H   TRP A   2      59.362  11.327  -6.821  0.00  0.00    +0.150 HD
BRANCH   2   6
ATOM      6  CA  SER A   1      57.492  12.361  -8.215  0.00  0.00    +0.174 C 
BRANCH   6   7
ATOM      7  N   SER A   1      56.146  12.634  -8.723  0.00  0.00    -0.236 NA
ATOM      8  H   SER A   1      55.506  13.253  -8.186  0.00  0.00    +0.142 HD
ENDBRANCH   6   7
BRANCH   6   9
ATOM      9  CB  SER A   1      58.440  13.512  -8.553  0.00  0.00    +0.163 C 
BRANCH   9  10
ATOM     10  OG  SER A   1      58.123  14.639  -7.742  0.00  0.00    -0.380 OA
ATOM     11  H   SER A   1      57.189  14.917  -7.916  0.00  0.00    +0.211 HD
ENDBRANCH   9  10
ENDBRANCH   6   9
ENDBRANCH   2   6
ENDBRANCH   1   4
BRANCH   1  12
ATOM     12  C   TRP A   2      59.582  12.578  -4.273  0.00  0.00    +0.241 C 
ATOM     13  N   ASP A   3      58.969  13.437  -3.490  0.00  0.00    -0.297 N 
ATOM     14  H   ASP A   3      58.018  13.215  -3.132  0.00  0.00    +0.150 HD
ATOM     15  O   TRP A   2      60.768  12.708  -4.608  0.00  0.00    -0.273 OA
BRANCH  13  16
ATOM     16  CA  ASP A   3      59.597  14.687  -3.118  0.00  0.00    +0.160 C 
BRANCH  16  17
ATOM     17  C   ASP A   3      60.018  14.633  -1.669  0.00  0.00    +0.241 C 
ATOM     18  O   ASP A   3      59.195  14.717  -0.768  0.00  0.00    -0.273 OA
ATOM     19  N   CYS A   4      61.322  14.445  -1.458  0.00  0.00    -0.297 N 
ATOM     20  H   CYS A   4      61.972  14.429  -2.270  0.00  0.00    +0.150 HD
BRANCH  19  21
ATOM     21  CA  CYS A   4      61.854  14.262  -0.120  0.00  0.00    +0.149 C 
BRANCH  21  22
ATOM     22  C   CYS A   4      62.620  15.478   0.349  0.00  0.00    +0.228 C 
ATOM     23  O   CYS A   4      63.614  15.342   1.052  0.00  0.00    -0.286 OA
ENDBRANCH  21  22
BRANCH  21  24
ATOM     24  CB  CYS A   4      62.738  13.016  -0.024  0.00  0.00    +0.096 C 
ATOM     25  SG  CYS A   4      61.859  11.480  -0.354  0.00  0.00    -0.080 S 
ENDBRANCH  21  24
ENDBRANCH  19  21
ENDBRANCH  16  17
BRANCH  16  26
ATOM     26  CB  ASP A   3      58.629  15.839  -3.418  0.00  0.00    +0.143 C 
BRANCH  26  27
ATOM     27  CG  ASP A   3      59.088  17.166  -2.860  0.00  0.00    +0.367 C 
ATOM     28  OD2 ASP A   3      60.266  17.294  -2.424  0.00  0.00    -0.246 OA
ATOM     29  OD1 ASP A   3      58.235  18.083  -2.871  0.00  0.00    -0.246 OA
ENDBRANCH  26  27
ENDBRANCH  16  26
ENDBRANCH  13  16
ENDBRANCH   1  12
BRANCH   1  30
ATOM     30  CB  TRP A   2      59.400  10.074  -4.461  0.00  0.00    +0.057 C 
BRANCH  30  31
ATOM     31  CG  TRP A   2      58.593   8.823  -4.756  0.00  0.00    -0.002 A 
ATOM     32  CD1 TRP A   2      57.793   8.144  -3.865  0.00  0.00    +0.068 A 
ATOM     33  NE1 TRP A   2      57.240   7.038  -4.463  0.00  0.00    -0.352 N 
ATOM     34  HE1 TRP A   2      56.591   6.365  -4.007  0.00  0.00    +0.166 HD
ATOM     35  CE2 TRP A   2      57.683   6.965  -5.761  0.00  0.00    +0.056 A 
ATOM     36  CZ2 TRP A   2      57.396   6.028  -6.747  0.00  0.00    +0.017 A 
ATOM     37  CH2 TRP A   2      57.975   6.198  -7.989  0.00  0.00    +0.001 A 
ATOM     38  CZ3 TRP A   2      58.850   7.282  -8.249  0.00  0.00    +0.000 A 
ATOM     39  CE3 TRP A   2      59.124   8.237  -7.260  0.00  0.00    +0.001 A 
ATOM     40  CD2 TRP A   2      58.533   8.079  -5.989  0.00  0.00    +0.013 A 
ENDBRANCH  30  31
ENDBRANCH   1  30
TORSDOF 15
REMARK  Name = ../refined-set-2016/2o4j/2o4j_pocket.pdb
REMARK  284 active torsions:
REMARK  status: ('A' for Active; 'I' for Inactive)
REMARK    1  A    between atoms: _1  and  _3
REMARK    2  A    between atoms: _3  and  _4
REMARK    3  A    between atoms: _3  and  _6
REMARK    4  A    between atoms: _6  and  _7
REMARK    5  A    between atoms: _10  and  _12
REMARK    6  A    between atoms: _12  and  _13
REMARK    7  A    between atoms: _12  and  _15
REMARK    8  A    between atoms: _15  and  _16
REMARK    9  A    between atoms: _21  and  _22
REMARK   10  A    between atoms: _24  and  _26
REMARK   11  A    between atoms: _26  and  _27
REMARK   12  A    between atoms: _26  and  _29
REMARK   13  A    between atoms: _29  and  _30
REMARK   14  A    between atoms: _34  and  _35
REMARK   15  A    between atoms: _40  and  _42
REMARK   16  A    between atoms: _42  and  _43
REMARK   17  A    between atoms: _42  and  _45
REMARK   18  A    between atoms: _45  and  _46
REMARK   19  A    between atoms: _51  and  _52
REMARK   20  A    between atoms: _54  and  _56
REMARK   21  A    between atoms: _56  and  _57
REMARK   22  A    between atoms: _56  and  _59
REMARK   23  A    between atoms: _59  and  _60
REMARK   24  A    between atoms: _66  and  _68
REMARK   25  A    between atoms: _68  and  _69
REMARK   26  A    between atoms: _68  and  _71
REMARK   27  A    between atoms: _71  and  _72
REMARK   28  A    between atoms: _78  and  _80
REMARK   29  A    between atoms: _80  and  _81
REMARK   30  A    between atoms: _80  and  _83
REMARK   31  A    between atoms: _83  and  _84
REMARK   32  A    between atoms: _84  and  _85
REMARK   33  A    between atoms: _85  and  _86
REMARK   34  A    between atoms: _95  and  _97
REMARK   35  A    between atoms: _97  and  _98
REMARK   36  A    between atoms: _97  and  _100
REMARK   37  A    between atoms: _100  and  _101
REMARK   38  A    between atoms: _101  and  _102
REMARK   39  A    between atoms: _104  and  _106
REMARK   40  A    between atoms: _106  and  _107
REMARK   41  A    between atoms: _106  and  _109
REMARK   42  A    between atoms: _109  and  _110
REMARK   43  A    between atoms: _114  and  _115
REMARK   44  A    between atoms: _120  and  _122
REMARK   45  A    between atoms: _122  and  _123
REMARK   46  A    between atoms: _122  and  _125
REMARK   47  A    between atoms: _125  and  _126
REMARK   48  A    between atoms: _131  and  _133
REMARK   49  A    between atoms: _133  and  _134
REMARK   50  A    between atoms: _133  and  _136
REMARK   51  A    between atoms: _136  and  _137
REMARK   52  A    between atoms: _140  and  _142
REMARK   53  A    between atoms: _142  and  _143
REMARK   54  A    between atoms: _146  and  _148
REMARK   55  A    between atoms: _148  and  _149
REMARK   56  A    between atoms: _148  and  _151
REMARK   57  A    between atoms: _151  and  _152
REMARK   58  A    between atoms: _155  and  _157
REMARK   59  A    between atoms: _157  and  _158
REMARK   60  A    between atoms: _157  and  _160
REMARK   61  A    between atoms: _160  and  _161
REMARK   62  A    between atoms: _164  and  _166
REMARK   63  A    between atoms: _166  and  _167
REMARK   64  A    between atoms: _166  and  _169
REMARK   65  A    between atoms: _172  and  _174
REMARK   66  A    between atoms: _174  and  _175
REMARK   67  A    between atoms: _174  and  _177
REMARK   68  A    between atoms: _177  and  _178
REMARK   69  A    between atoms: _180  and  _182
REMARK   70  A    between atoms: _182  and  _183
REMARK   71  A    between atoms: _182  and  _185
REMARK   72  A    between atoms: _185  and  _186
REMARK   73  A    between atoms: _191  and  _192
REMARK   74  A    between atoms: _194  and  _196
REMARK   75  A    between atoms: _196  and  _197
REMARK   76  A    between atoms: _196  and  _199
REMARK   77  A    between atoms: _199  and  _200
REMARK   78  A    between atoms: _202  and  _204
REMARK   79  A    between atoms: _204  and  _205
REMARK   80  A    between atoms: _204  and  _207
REMARK   81  A    between atoms: _207  and  _208
REMARK   82  A    between atoms: _211  and  _213
REMARK   83  A    between atoms: _213  and  _214
REMARK   84  A    between atoms: _213  and  _216
REMARK   85  A    between atoms: _216  and  _217
REMARK   86  A    between atoms: _217  and  _218
REMARK   87  A    between atoms: _218  and  _219
REMARK   88  A    between atoms: _219  and  _220
REMARK   89  A    between atoms: _224  and  _226
REMARK   90  A    between atoms: _226  and  _227
REMARK   91  A    between atoms: _226  and  _229
REMARK   92  A    between atoms: _232  and  _234
REMARK   93  A    between atoms: _234  and  _235
REMARK   94  A    between atoms: _238  and  _240
REMARK   95  A    between atoms: _240  and  _241
REMARK   96  A    between atoms: _240  and  _243
REMARK   97  A    between atoms: _243  and  _244
REMARK   98  A    between atoms: _247  and  _249
REMARK   99  A    between atoms: _249  and  _250
REMARK  100  A    between atoms: _249  and  _252
REMARK  101  A    between atoms: _252  and  _253
REMARK  102  A    between atoms: _253  and  _254
REMARK  103  A    between atoms: _257  and  _259
REMARK  104  A    between atoms: _259  and  _260
REMARK  105  A    between atoms: _259  and  _262
REMARK  106  A    between atoms: _265  and  _267
REMARK  107  A    between atoms: _267  and  _268
REMARK  108  A    between atoms: _267  and  _270
REMARK  109  A    between atoms: _270  and  _271
REMARK  110  A    between atoms: _274  and  _276
REMARK  111  A    between atoms: _276  and  _277
REMARK  112  A    between atoms: _276  and  _279
REMARK  113  A    between atoms: _279  and  _280
REMARK  114  A    between atoms: _280  and  _281
REMARK  115  A    between atoms: _283  and  _285
REMARK  116  A    between atoms: _285  and  _286
REMARK  117  A    between atoms: _285  and  _288
REMARK  118  A    between atoms: _288  and  _289
REMARK  119  A    between atoms: _292  and  _294
REMARK  120  A    between atoms: _294  and  _295
REMARK  121  A    between atoms: _294  and  _297
REMARK  122  A    between atoms: _297  and  _298
REMARK  123  A    between atoms: _298  and  _299
REMARK  124  A    between atoms: _299  and  _300
REMARK  125  A    between atoms: _309  and  _311
REMARK  126  A    between atoms: _311  and  _312
REMARK  127  A    between atoms: _311  and  _314
REMARK  128  A    between atoms: _314  and  _315
REMARK  129  A    between atoms: _317  and  _319
REMARK  130  A    between atoms: _319  and  _320
REMARK  131  A    between atoms: _319  and  _322
REMARK  132  A    between atoms: _322  and  _323
REMARK  133  A    between atoms: _328  and  _330
REMARK  134  A    between atoms: _330  and  _331
REMARK  135  A    between atoms: _330  and  _333
REMARK  136  A    between atoms: _333  and  _334
REMARK  137  A    between atoms: _334  and  _335
REMARK  138  A    between atoms: _340  and  _342
REMARK  139  A    between atoms: _342  and  _343
REMARK  140  A    between atoms: _342  and  _345
REMARK  141  A    between atoms: _345  and  _346
REMARK  142  A    between atoms: _348  and  _350
REMARK  143  A    between atoms: _350  and  _351
REMARK  144  A    between atoms: _350  and  _353
REMARK  145  A    between atoms: _353  and  _354
REMARK  146  A    between atoms: _360  and  _362
REMARK  147  A    between atoms: _362  and  _363
REMARK  148  A    between atoms: _362  and  _365
REMARK  149  A    between atoms: _365  and  _366
REMARK  150  A    between atoms: _368  and  _370
REMARK  151  A    between atoms: _370  and  _371
REMARK  152  A    between atoms: _370  and  _373
REMARK  153  A    between atoms: _373  and  _374
REMARK  154  A    between atoms: _384  and  _386
REMARK  155  A    between atoms: _386  and  _387
REMARK  156  A    between atoms: _386  and  _389
REMARK  157  A    between atoms: _389  and  _390
REMARK  158  A    between atoms: _393  and  _395
REMARK  159  A    between atoms: _395  and  _396
REMARK  160  A    between atoms: _395  and  _398
REMARK  161  A    between atoms: _400  and  _402
REMARK  162  A    between atoms: _402  and  _403
REMARK  163  A    between atoms: _402  and  _405
REMARK  164  A    between atoms: _405  and  _406
REMARK  165  A    between atoms: _411  and  _412
REMARK  166  A    between atoms: _414  and  _416
REMARK  167  A    between atoms: _416  and  _417
REMARK  168  A    between atoms: _416  and  _419
REMARK  169  A    between atoms: _419  and  _420
REMARK  170  A    between atoms: _420  and  _421
REMARK  171  A    between atoms: _421  and  _422
REMARK  172  A    between atoms: _422  and  _423
REMARK  173  A    between atoms: _427  and  _429
REMARK  174  A    between atoms: _429  and  _430
REMARK  175  A    between atoms: _429  and  _432
REMARK  176  A    between atoms: _432  and  _433
REMARK  177  A    between atoms: _438  and  _439
REMARK  178  A    between atoms: _441  and  _443
REMARK  179  A    between atoms: _443  and  _444
REMARK  180  A    between atoms: _443  and  _446
REMARK  181  A    between atoms: _446  and  _447
REMARK  182  A    between atoms: _450  and  _452
REMARK  183  A    between atoms: _452  and  _453
REMARK  184  A    between atoms: _452  and  _455
REMARK  185  A    between atoms: _455  and  _456
REMARK  186  A    between atoms: _459  and  _461
REMARK  187  A    between atoms: _461  and  _462
REMARK  188  A    between atoms: _461  and  _464
REMARK  189  A    between atoms: _467  and  _469
REMARK  190  A    between atoms: _469  and  _470
REMARK  191  A    between atoms: _469  and  _472
REMARK  192  A    between atoms: _472  and  _473
REMARK  193  A    between atoms: _475  and  _477
REMARK  194  A    between atoms: _477  and  _478
REMARK  195  A    between atoms: _481  and  _483
REMARK  196  A    between atoms: _483  and  _484
REMARK  197  A    between atoms: _486  and  _488
REMARK  198  A    between atoms: _488  and  _489
REMARK  199  A    between atoms: _488  and  _491
REMARK  200  A    between atoms: _491  and  _492
REMARK  201  A    between atoms: _497  and  _499
REMARK  202  A    between atoms: _499  and  _500
REMARK  203  A    between atoms: _499  and  _502
REMARK  204  A    between atoms: _502  and  _503
REMARK  205  A    between atoms: _506  and  _508
REMARK  206  A    between atoms: _508  and  _509
REMARK  207  A    between atoms: _508  and  _511
REMARK  208  A    between atoms: _511  and  _512
REMARK  209  A    between atoms: _515  and  _517
REMARK  210  A    between atoms: _517  and  _518
REMARK  211  A    between atoms: _517  and  _520
REMARK  212  A    between atoms: _520  and  _521
REMARK  213  A    between atoms: _524  and  _526
REMARK  214  A    between atoms: _526  and  _527
REMARK  215  A    between atoms: _526  and  _529
REMARK  216  A    between atoms: _529  and  _530
REMARK  217  A    between atoms: _530  and  _531
REMARK  218  A    between atoms: _536  and  _538
REMARK  219  A    between atoms: _538  and  _539
REMARK  220  A    between atoms: _538  and  _541
REMARK  221  A    between atoms: _541  and  _542
REMARK  222  A    between atoms: _545  and  _547
REMARK  223  A    between atoms: _547  and  _548
REMARK  224  A    between atoms: _547  and  _550
REMARK  225  A    between atoms: _550  and  _551
REMARK  226  A    between atoms: _551  and  _552
REMARK  227  A    between atoms: _555  and  _557
REMARK  228  A    between atoms: _557  and  _558
REMARK  229  A    between atoms: _557  and  _560
REMARK  230  A    between atoms: _560  and  _561
REMARK  231  A    between atoms: _566  and  _568
REMARK  232  A    between atoms: _568  and  _569
REMARK  233  A    between atoms: _568  and  _571
REMARK  234  A    between atoms: _571  and  _572
REMARK  235  A    between atoms: _574  and  _576
REMARK  236  A    between atoms: _576  and  _577
REMARK  237  A    between atoms: _576  and  _579
REMARK  238  A    between atoms: _579  and  _580
REMARK  239  A    between atoms: _580  and  _581
REMARK  240  A    between atoms: _586  and  _588
REMARK  241  A    between atoms: _588  and  _589
REMARK  242  A    between atoms: _588  and  _591
REMARK  243  A    between atoms: _591  and  _592
REMARK  244  A    between atoms: _597  and  _598
REMARK  245  A    between atoms: _600  and  _602
REMARK  246  A    between atoms: _602  and  _603
REMARK  247  A    between atoms: _602  and  _605
REMARK  248  A    between atoms: _605  and  _606
REMARK  249  A    between atoms: _606  and  _607
REMARK  250  A    between atoms: _607  and  _608
REMARK  251  A    between atoms: _617  and  _619
REMARK  252  A    between atoms: _619  and  _620
REMARK  253  A    between atoms: _619  and  _622
REMARK  254  A    between atoms: _622  and  _623
REMARK  255  A    between atoms: _626  and  _628
REMARK  256  A    between atoms: _628  and  _629
REMARK  257  A    between atoms: _628  and  _631
REMARK  258  A    between atoms: _631  and  _632
REMARK  259  A    between atoms: _634  and  _636
REMARK  260  A    between atoms: _636  and  _637
REMARK  261  A    between atoms: _636  and  _639
REMARK  262  A    between atoms: _639  and  _640
REMARK  263  A    between atoms: _645  and  _647
REMARK  264  A    between atoms: _647  and  _648
REMARK  265  A    between atoms: _647  and  _650
REMARK  266  A    between atoms: _650  and  _651
REMARK  267  A    between atoms: _651  and  _652
REMARK  268  A    between atoms: _652  and  _653
REMARK  269  A    between atoms: _653  and  _654
REMARK  270  A    between atoms: _658  and  _660
REMARK  271  A    between atoms: _660  and  _661
REMARK  272  A    between atoms: _660  and  _663
REMARK  273  A    between atoms: _663  and  _664
REMARK  274  A    between atoms: _667  and  _669
REMARK  275  A    between atoms: _669  and  _670
REMARK  276  A    between atoms: _669  and  _672
REMARK  277  A    between atoms: _672  and  _673
REMARK  278  A    between atoms: _676  and  _678
REMARK  279  A    between atoms: _678  and  _679
REMARK  280  A    between atoms: _678  and  _681
REMARK  281  A    between atoms: _684  and  _686
REMARK  282  A    between atoms: _686  and  _687
REMARK  283  A    between atoms: _686  and  _689
REMARK  284  A    between atoms: _689  and  _690
REMARK                            x       y       z     vdW  Elec       q    Type
REMARK                         _______ _______ _______ _____ _____    ______ ____
ROOT
ATOM      1  CA  LYS A   2      63.178  14.549  -5.612  0.00  0.00    +0.149 C 
ENDROOT
BRANCH   1   2
ATOM      2  C   LYS A   2      63.379  13.579  -6.768  0.00  0.00    +0.241 C 
ATOM      3  N   TYR A   3      62.689  12.440  -6.712  0.00  0.00    -0.297 N 
ATOM      4  H   TYR A   3      61.958  12.328  -5.981  0.00  0.00    +0.150 HD
ATOM      5  O   LYS A   2      64.186  13.830  -7.672  0.00  0.00    -0.273 OA
BRANCH   3   6
ATOM      6  CA  TYR A   3      62.928  11.348  -7.644  0.00  0.00    +0.153 C 
BRANCH   6   7
ATOM      7  C   TYR A   3      61.765  11.201  -8.597  0.00  0.00    +0.241 C 
ATOM      8  O   TYR A   3      60.605  11.020  -8.175  0.00  0.00    -0.273 OA
ATOM      9  N   ASP A   4      62.079  11.278  -9.888  0.00  0.00    -0.298 N 
ATOM     10  H   ASP A   4      63.072  11.411 -10.166  0.00  0.00    +0.150 HD
BRANCH   9  11
ATOM     11  CA  ASP A   4      61.055  11.179 -10.916  0.00  0.00    +0.148 C 
BRANCH  11  12
ATOM     12  C   ASP A   4      61.238   9.904 -11.668  0.00  0.00    +0.227 C 
ATOM     13  O   ASP A   4      62.133   9.119 -11.360  0.00  0.00    -0.286 OA
ENDBRANCH  11  12
BRANCH  11  14
ATOM     14  CB  ASP A   4      61.030  12.416 -11.853  0.00  0.00    +0.142 C 
BRANCH  14  15
ATOM     15  CG  ASP A   4      62.337  12.647 -12.585  0.00  0.00    +0.367 C 
ATOM     16  OD2 ASP A   4      63.166  11.718 -12.719  0.00  0.00    -0.246 OA
ATOM     17  OD1 ASP A   4      62.533  13.788 -13.058  0.00  0.00    -0.246 OA
ENDBRANCH  14  15
ENDBRANCH  11  14
ENDBRANCH   9  11
ENDBRANCH   6   7
BRANCH   6  18
ATOM     18  CB  TYR A   3      63.158  10.024  -6.882  0.00  0.00    +0.055 C 
BRANCH  18  19
ATOM     19  CG  TYR A   3      64.065  10.207  -5.695  0.00  0.00    -0.020 A 
ATOM     20  CD2 TYR A   3      63.555  10.218  -4.401  0.00  0.00    -0.001 A 
ATOM     21  CE2 TYR A   3      64.407  10.414  -3.305  0.00  0.00    +0.036 A 
ATOM     22  CZ  TYR A   3      65.767  10.604  -3.516  0.00  0.00    +0.134 A 
ATOM     23  CE1 TYR A   3      66.291  10.599  -4.790  0.00  0.00    +0.036 A 
ATOM     24  CD1 TYR A   3      65.440  10.409  -5.868  0.00  0.00    -0.001 A 
BRANCH  22  25
ATOM     25  OH  TYR A   3      66.587  10.786  -2.430  0.00  0.00    -0.506 OA
ATOM     26  HH  TYR A   3      67.264  10.064  -2.405  0.00  0.00    +0.292 HD
ENDBRANCH  22  25
ENDBRANCH  18  19
ENDBRANCH   6  18
ENDBRANCH   3   6
ENDBRANCH   1   2
BRANCH   1  29
ATOM     27  C   TYR A   1      64.614  14.319  -3.615  0.00  0.00    +0.239 C 
ATOM     28  O   TYR A   1      63.695  14.019  -2.854  0.00  0.00    -0.274 OA
ATOM     29  N   LYS A   2      64.445  14.625  -4.903  0.00  0.00    -0.297 N 
ATOM     30  H   LYS A   2      65.279  14.940  -5.438  0.00  0.00    +0.150 HD
BRANCH  27  31
ATOM     31  CA  TYR A   1      66.066  14.351  -3.118  0.00  0.00    +0.149 C 
BRANCH  31  32
ATOM     32  N   TYR A   1      66.810  15.506  -3.630  0.00  0.00    -0.238 NA
ATOM     33  H   TYR A   1      66.569  16.454  -3.276  0.00  0.00    +0.142 HD
ENDBRANCH  31  32
BRANCH  31  34
ATOM     34  CB  TYR A   1      66.151  14.268  -1.581  0.00  0.00    +0.053 C 
BRANCH  34  35
ATOM     35  CG  TYR A   1      67.568  14.384  -1.024  0.00  0.00    -0.020 A 
ATOM     36  CD2 TYR A   1      67.822  15.092   0.160  0.00  0.00    -0.001 A 
ATOM     37  CE2 TYR A   1      69.120  15.203   0.659  0.00  0.00    +0.036 A 
ATOM     38  CZ  TYR A   1      70.185  14.596  -0.030  0.00  0.00    +0.134 A 
ATOM     39  CE1 TYR A   1      69.953  13.903  -1.197  0.00  0.00    +0.036 A 
ATOM     40  CD1 TYR A   1      68.648  13.794  -1.684  0.00  0.00    -0.001 A 
BRANCH  38  41
ATOM     41  OH  TYR A   1      71.487  14.690   0.439  0.00  0.00    -0.506 OA
ATOM     42  HH  TYR A   1      72.049  15.142  -0.239  0.00  0.00    +0.292 HD
ENDBRANCH  38  41
ENDBRANCH  34  35
ENDBRANCH  31  34
ENDBRANCH  27  31
ENDBRANCH   1  29
BRANCH   1  43
ATOM     43  CB  LYS A   2      62.768  15.934  -6.141  0.00  0.00    +0.029 C 
BRANCH  43  44
ATOM     44  CG  LYS A   2      61.354  16.018  -6.724  0.00  0.00    +0.000 C 
BRANCH  44  45
ATOM     45  CD  LYS A   2      60.998  17.481  -7.041  0.00  0.00    -0.024 C 
BRANCH  45  46
ATOM     46  CE  LYS A   2      59.511  17.639  -7.256  0.00  0.00    -0.086 C 
BRANCH  46  47
ATOM     47  NZ  LYS A   2      59.034  18.989  -6.788  0.00  0.00    +0.380 N 
ATOM     48  HZ1 LYS A   2      59.236  19.094  -5.773  0.00  0.00    -0.089 HD
ATOM     49  HZ2 LYS A   2      58.009  19.068  -6.948  0.00  0.00    -0.089 HD
ATOM     50  HZ3 LYS A   2      59.528  19.734  -7.320  0.00  0.00    -0.089 HD
ENDBRANCH  46  47
ENDBRANCH  45  46
ENDBRANCH  44  45
ENDBRANCH  43  44
ENDBRANCH   1  43
TORSDOF 21
REMARK  Name = ../refined-set-2016/2o4j/2o4j_pocket.pdb
REMARK  284 active torsions:
REMARK  status: ('A' for Active; 'I' for Inactive)
REMARK    1  A    between atoms: _1  and  _3
REMARK    2  A    between atoms: _3  and  _4
REMARK    3  A    between atoms: _3  and  _6
REMARK    4  A    between atoms: _6  and  _7
REMARK    5  A    between atoms: _10  and  _12
REMARK    6  A    between atoms: _12  and  _13
REMARK    7  A    between atoms: _12  and  _15
REMARK    8  A    between atoms: _15  and  _16
REMARK    9  A    between atoms: _21  and  _22
REMARK   10  A    between atoms: _24  and  _26
REMARK   11  A    between atoms: _26  and  _27
REMARK   12  A    between atoms: _26  and  _29
REMARK   13  A    between atoms: _29  and  _30
REMARK   14  A    between atoms: _34  and  _35
REMARK   15  A    between atoms: _40  and  _42
REMARK   16  A    between atoms: _42  and  _43
REMARK   17  A    between atoms: _42  and  _45
REMARK   18  A    between atoms: _45  and  _46
REMARK   19  A    between atoms: _51  and  _52
REMARK   20  A    between atoms: _54  and  _56
REMARK   21  A    between atoms: _56  and  _57
REMARK   22  A    between atoms: _56  and  _59
REMARK   23  A    between atoms: _59  and  _60
REMARK   24  A    between atoms: _66  and  _68
REMARK   25  A    between atoms: _68  and  _69
REMARK   26  A    between atoms: _68  and  _71
REMARK   27  A    between atoms: _71  and  _72
REMARK   28  A    between atoms: _78  and  _80
REMARK   29  A    between atoms: _80  and  _81
REMARK   30  A    between atoms: _80  and  _83
REMARK   31  A    between atoms: _83  and  _84
REMARK   32  A    between atoms: _84  and  _85
REMARK   33  A    between atoms: _85  and  _86
REMARK   34  A    between atoms: _95  and  _97
REMARK   35  A    between atoms: _97  and  _98
REMARK   36  A    between atoms: _97  and  _100
REMARK   37  A    between atoms: _100  and  _101
REMARK   38  A    between atoms: _101  and  _102
REMARK   39  A    between atoms: _104  and  _106
REMARK   40  A    between atoms: _106  and  _107
REMARK   41  A    between atoms: _106  and  _109
REMARK   42  A    between atoms: _109  and  _110
REMARK   43  A    between atoms: _114  and  _115
REMARK   44  A    between atoms: _120  and  _122
REMARK   45  A    between atoms: _122  and  _123
REMARK   46  A    between atoms: _122  and  _125
REMARK   47  A    between atoms: _125  and  _126
REMARK   48  A    between atoms: _131  and  _133
REMARK   49  A    between atoms: _133  and  _134
REMARK   50  A    between atoms: _133  and  _136
REMARK   51  A    between atoms: _136  and  _137
REMARK   52  A    between atoms: _140  and  _142
REMARK   53  A    between atoms: _142  and  _143
REMARK   54  A    between atoms: _146  and  _148
REMARK   55  A    between atoms: _148  and  _149
REMARK   56  A    between atoms: _148  and  _151
REMARK   57  A    between atoms: _151  and  _152
REMARK   58  A    between atoms: _155  and  _157
REMARK   59  A    between atoms: _157  and  _158
REMARK   60  A    between atoms: _157  and  _160
REMARK   61  A    between atoms: _160  and  _161
REMARK   62  A    between atoms: _164  and  _166
REMARK   63  A    between atoms: _166  and  _167
REMARK   64  A    between atoms: _166  and  _169
REMARK   65  A    between atoms: _172  and  _174
REMARK   66  A    between atoms: _174  and  _175
REMARK   67  A    between atoms: _174  and  _177
REMARK   68  A    between atoms: _177  and  _178
REMARK   69  A    between atoms: _180  and  _182
REMARK   70  A    between atoms: _182  and  _183
REMARK   71  A    between atoms: _182  and  _185
REMARK   72  A    between atoms: _185  and  _186
REMARK   73  A    between atoms: _191  and  _192
REMARK   74  A    between atoms: _194  and  _196
REMARK   75  A    between atoms: _196  and  _197
REMARK   76  A    between atoms: _196  and  _199
REMARK   77  A    between atoms: _199  and  _200
REMARK   78  A    between atoms: _202  and  _204
REMARK   79  A    between atoms: _204  and  _205
REMARK   80  A    between atoms: _204  and  _207
REMARK   81  A    between atoms: _207  and  _208
REMARK   82  A    between atoms: _211  and  _213
REMARK   83  A    between atoms: _213  and  _214
REMARK   84  A    between atoms: _213  and  _216
REMARK   85  A    between atoms: _216  and  _217
REMARK   86  A    between atoms: _217  and  _218
REMARK   87  A    between atoms: _218  and  _219
REMARK   88  A    between atoms: _219  and  _220
REMARK   89  A    between atoms: _224  and  _226
REMARK   90  A    between atoms: _226  and  _227
REMARK   91  A    between atoms: _226  and  _229
REMARK   92  A    between atoms: _232  and  _234
REMARK   93  A    between atoms: _234  and  _235
REMARK   94  A    between atoms: _238  and  _240
REMARK   95  A    between atoms: _240  and  _241
REMARK   96  A    between atoms: _240  and  _243
REMARK   97  A    between atoms: _243  and  _244
REMARK   98  A    between atoms: _247  and  _249
REMARK   99  A    between atoms: _249  and  _250
REMARK  100  A    between atoms: _249  and  _252
REMARK  101  A    between atoms: _252  and  _253
REMARK  102  A    between atoms: _253  and  _254
REMARK  103  A    between atoms: _257  and  _259
REMARK  104  A    between atoms: _259  and  _260
REMARK  105  A    between atoms: _259  and  _262
REMARK  106  A    between atoms: _265  and  _267
REMARK  107  A    between atoms: _267  and  _268
REMARK  108  A    between atoms: _267  and  _270
REMARK  109  A    between atoms: _270  and  _271
REMARK  110  A    between atoms: _274  and  _276
REMARK  111  A    between atoms: _276  and  _277
REMARK  112  A    between atoms: _276  and  _279
REMARK  113  A    between atoms: _279  and  _280
REMARK  114  A    between atoms: _280  and  _281
REMARK  115  A    between atoms: _283  and  _285
REMARK  116  A    between atoms: _285  and  _286
REMARK  117  A    between atoms: _285  and  _288
REMARK  118  A    between atoms: _288  and  _289
REMARK  119  A    between atoms: _292  and  _294
REMARK  120  A    between atoms: _294  and  _295
REMARK  121  A    between atoms: _294  and  _297
REMARK  122  A    between atoms: _297  and  _298
REMARK  123  A    between atoms: _298  and  _299
REMARK  124  A    between atoms: _299  and  _300
REMARK  125  A    between atoms: _309  and  _311
REMARK  126  A    between atoms: _311  and  _312
REMARK  127  A    between atoms: _311  and  _314
REMARK  128  A    between atoms: _314  and  _315
REMARK  129  A    between atoms: _317  and  _319
REMARK  130  A    between atoms: _319  and  _320
REMARK  131  A    between atoms: _319  and  _322
REMARK  132  A    between atoms: _322  and  _323
REMARK  133  A    between atoms: _328  and  _330
REMARK  134  A    between atoms: _330  and  _331
REMARK  135  A    between atoms: _330  and  _333
REMARK  136  A    between atoms: _333  and  _334
REMARK  137  A    between atoms: _334  and  _335
REMARK  138  A    between atoms: _340  and  _342
REMARK  139  A    between atoms: _342  and  _343
REMARK  140  A    between atoms: _342  and  _345
REMARK  141  A    between atoms: _345  and  _346
REMARK  142  A    between atoms: _348  and  _350
REMARK  143  A    between atoms: _350  and  _351
REMARK  144  A    between atoms: _350  and  _353
REMARK  145  A    between atoms: _353  and  _354
REMARK  146  A    between atoms: _360  and  _362
REMARK  147  A    between atoms: _362  and  _363
REMARK  148  A    between atoms: _362  and  _365
REMARK  149  A    between atoms: _365  and  _366
REMARK  150  A    between atoms: _368  and  _370
REMARK  151  A    between atoms: _370  and  _371
REMARK  152  A    between atoms: _370  and  _373
REMARK  153  A    between atoms: _373  and  _374
REMARK  154  A    between atoms: _384  and  _386
REMARK  155  A    between atoms: _386  and  _387
REMARK  156  A    between atoms: _386  and  _389
REMARK  157  A    between atoms: _389  and  _390
REMARK  158  A    between atoms: _393  and  _395
REMARK  159  A    between atoms: _395  and  _396
REMARK  160  A    between atoms: _395  and  _398
REMARK  161  A    between atoms: _400  and  _402
REMARK  162  A    between atoms: _402  and  _403
REMARK  163  A    between atoms: _402  and  _405
REMARK  164  A    between atoms: _405  and  _406
REMARK  165  A    between atoms: _411  and  _412
REMARK  166  A    between atoms: _414  and  _416
REMARK  167  A    between atoms: _416  and  _417
REMARK  168  A    between atoms: _416  and  _419
REMARK  169  A    between atoms: _419  and  _420
REMARK  170  A    between atoms: _420  and  _421
REMARK  171  A    between atoms: _421  and  _422
REMARK  172  A    between atoms: _422  and  _423
REMARK  173  A    between atoms: _427  and  _429
REMARK  174  A    between atoms: _429  and  _430
REMARK  175  A    between atoms: _429  and  _432
REMARK  176  A    between atoms: _432  and  _433
REMARK  177  A    between atoms: _438  and  _439
REMARK  178  A    between atoms: _441  and  _443
REMARK  179  A    between atoms: _443  and  _444
REMARK  180  A    between atoms: _443  and  _446
REMARK  181  A    between atoms: _446  and  _447
REMARK  182  A    between atoms: _450  and  _452
REMARK  183  A    between atoms: _452  and  _453
REMARK  184  A    between atoms: _452  and  _455
REMARK  185  A    between atoms: _455  and  _456
REMARK  186  A    between atoms: _459  and  _461
REMARK  187  A    between atoms: _461  and  _462
REMARK  188  A    between atoms: _461  and  _464
REMARK  189  A    between atoms: _467  and  _469
REMARK  190  A    between atoms: _469  and  _470
REMARK  191  A    between atoms: _469  and  _472
REMARK  192  A    between atoms: _472  and  _473
REMARK  193  A    between atoms: _475  and  _477
REMARK  194  A    between atoms: _477  and  _478
REMARK  195  A    between atoms: _481  and  _483
REMARK  196  A    between atoms: _483  and  _484
REMARK  197  A    between atoms: _486  and  _488
REMARK  198  A    between atoms: _488  and  _489
REMARK  199  A    between atoms: _488  and  _491
REMARK  200  A    between atoms: _491  and  _492
REMARK  201  A    between atoms: _497  and  _499
REMARK  202  A    between atoms: _499  and  _500
REMARK  203  A    between atoms: _499  and  _502
REMARK  204  A    between atoms: _502  and  _503
REMARK  205  A    between atoms: _506  and  _508
REMARK  206  A    between atoms: _508  and  _509
REMARK  207  A    between atoms: _508  and  _511
REMARK  208  A    between atoms: _511  and  _512
REMARK  209  A    between atoms: _515  and  _517
REMARK  210  A    between atoms: _517  and  _518
REMARK  211  A    between atoms: _517  and  _520
REMARK  212  A    between atoms: _520  and  _521
REMARK  213  A    between atoms: _524  and  _526
REMARK  214  A    between atoms: _526  and  _527
REMARK  215  A    between atoms: _526  and  _529
REMARK  216  A    between atoms: _529  and  _530
REMARK  217  A    between atoms: _530  and  _531
REMARK  218  A    between atoms: _536  and  _538
REMARK  219  A    between atoms: _538  and  _539
REMARK  220  A    between atoms: _538  and  _541
REMARK  221  A    between atoms: _541  and  _542
REMARK  222  A    between atoms: _545  and  _547
REMARK  223  A    between atoms: _547  and  _548
REMARK  224  A    between atoms: _547  and  _550
REMARK  225  A    between atoms: _550  and  _551
REMARK  226  A    between atoms: _551  and  _552
REMARK  227  A    between atoms: _555  and  _557
REMARK  228  A    between atoms: _557  and  _558
REMARK  229  A    between atoms: _557  and  _560
REMARK  230  A    between atoms: _560  and  _561
REMARK  231  A    between atoms: _566  and  _568
REMARK  232  A    between atoms: _568  and  _569
REMARK  233  A    between atoms: _568  and  _571
REMARK  234  A    between atoms: _571  and  _572
REMARK  235  A    between atoms: _574  and  _576
REMARK  236  A    between atoms: _576  and  _577
REMARK  237  A    between atoms: _576  and  _579
REMARK  238  A    between atoms: _579  and  _580
REMARK  239  A    between atoms: _580  and  _581
REMARK  240  A    between atoms: _586  and  _588
REMARK  241  A    between atoms: _588  and  _589
REMARK  242  A    between atoms: _588  and  _591
REMARK  243  A    between atoms: _591  and  _592
REMARK  244  A    between atoms: _597  and  _598
REMARK  245  A    between atoms: _600  and  _602
REMARK  246  A    between atoms: _602  and  _603
REMARK  247  A    between atoms: _602  and  _605
REMARK  248  A    between atoms: _605  and  _606
REMARK  249  A    between atoms: _606  and  _607
REMARK  250  A    between atoms: _607  and  _608
REMARK  251  A    between atoms: _617  and  _619
REMARK  252  A    between atoms: _619  and  _620
REMARK  253  A    between atoms: _619  and  _622
REMARK  254  A    between atoms: _622  and  _623
REMARK  255  A    between atoms: _626  and  _628
REMARK  256  A    between atoms: _628  and  _629
REMARK  257  A    between atoms: _628  and  _631
REMARK  258  A    between atoms: _631  and  _632
REMARK  259  A    between atoms: _634  and  _636
REMARK  260  A    between atoms: _636  and  _637
REMARK  261  A    between atoms: _636  and  _639
REMARK  262  A    between atoms: _639  and  _640
REMARK  263  A    between atoms: _645  and  _647
REMARK  264  A    between atoms: _647  and  _648
REMARK  265  A    between atoms: _647  and  _650
REMARK  266  A    between atoms: _650  and  _651
REMARK  267  A    between atoms: _651  and  _652
REMARK  268  A    between atoms: _652  and  _653
REMARK  269  A    between atoms: _653  and  _654
REMARK  270  A    between atoms: _658  and  _660
REMARK  271  A    between atoms: _660  and  _661
REMARK  272  A    between atoms: _660  and  _663
REMARK  273  A    between atoms: _663  and  _664
REMARK  274  A    between atoms: _667  and  _669
REMARK  275  A    between atoms: _669  and  _670
REMARK  276  A    between atoms: _669  and  _672
REMARK  277  A    between atoms: _672  and  _673
REMARK  278  A    between atoms: _676  and  _678
REMARK  279  A    between atoms: _678  and  _679
REMARK  280  A    between atoms: _678  and  _681
REMARK  281  A    between atoms: _684  and  _686
REMARK  282  A    between atoms: _686  and  _687
REMARK  283  A    between atoms: _686  and  _689
REMARK  284  A    between atoms: _689  and  _690
REMARK                            x       y       z     vdW  Elec       q    Type
REMARK                         _______ _______ _______ _____ _____    ______ ____
ROOT
ATOM      1  CA  VAL A   2      64.301   5.418 -11.256  0.00  0.00    +0.148 C 
ENDROOT
BRANCH   1   4
ATOM      2  C   ASP A   1      65.699   7.379 -11.554  0.00  0.00    +0.239 C 
ATOM      3  O   ASP A   1      66.718   6.722 -11.366  0.00  0.00    -0.274 OA
ATOM      4  N   VAL A   2      64.476   6.855 -11.513  0.00  0.00    -0.297 N 
ATOM      5  H   VAL A   2      63.645   7.462 -11.663  0.00  0.00    +0.150 HD
BRANCH   2   6
ATOM      6  CA  ASP A   1      65.796   8.878 -11.824  0.00  0.00    +0.156 C 
BRANCH   6   7
ATOM      7  N   ASP A   1      64.880   9.300 -12.890  0.00  0.00    -0.238 NA
ATOM      8  H   ASP A   1      64.152  10.013 -12.682  0.00  0.00    +0.142 HD
ENDBRANCH   6   7
BRANCH   6   9
ATOM      9  CB  ASP A   1      65.491   9.605 -10.512  0.00  0.00    +0.140 C 
BRANCH   9  10
ATOM     10  CG  ASP A   1      65.797  11.092 -10.571  0.00  0.00    +0.367 C 
ATOM     11  OD2 ASP A   1      65.129  11.856  -9.841  0.00  0.00    -0.246 OA
ATOM     12  OD1 ASP A   1      66.706  11.519 -11.329  0.00  0.00    -0.246 OA
ENDBRANCH   9  10
ENDBRANCH   6   9
ENDBRANCH   2   6
ENDBRANCH   1   4
BRANCH   1  13
ATOM     13  C   VAL A   2      64.861   4.610 -12.423  0.00  0.00    +0.241 C 
ATOM     14  O   VAL A   2      65.406   3.512 -12.231  0.00  0.00    -0.273 OA
ATOM     15  N   SER A   3      64.701   5.112 -13.647  0.00  0.00    -0.296 N 
ATOM     16  H   SER A   3      64.211   6.018 -13.791  0.00  0.00    +0.150 HD
BRANCH  15  17
ATOM     17  CA  SER A   3      65.229   4.360 -14.781  0.00  0.00    +0.166 C 
BRANCH  17  18
ATOM     18  CB  SER A   3      66.758   4.415 -14.760  0.00  0.00    +0.229 C 
ATOM     19  OG  SER A   3      67.413   3.514 -15.249  0.00  0.00    -0.286 OA
ENDBRANCH  17  18
BRANCH  17  20
ATOM     20  C   SER A   3      64.670   4.856 -16.105  0.00  0.00    +0.165 C 
BRANCH  20  21
ATOM     21  O   SER A   3      65.253   6.098 -16.367  0.00  0.00    -0.380 OA
ATOM     22  H   SER A   3      65.027   6.728 -15.637  0.00  0.00    +0.211 HD
ENDBRANCH  20  21
ENDBRANCH  17  20
ENDBRANCH  15  17
ENDBRANCH   1  13
BRANCH   1  23
ATOM     23  CB  VAL A   2      62.817   4.992 -10.984  0.00  0.00    +0.027 C 
ATOM     24  CG2 VAL A   2      62.183   5.796  -9.842  0.00  0.00    +0.002 C 
ATOM     25  CG1 VAL A   2      62.737   3.446 -10.669  0.00  0.00    +0.002 C 
ENDBRANCH   1  23
TORSDOF 11
REMARK  Name = ../refined-set-2016/2o4j/2o4j_pocket.pdb
REMARK  284 active torsions:
REMARK  status: ('A' for Active; 'I' for Inactive)
REMARK    1  A    between atoms: _1  and  _3
REMARK    2  A    between atoms: _3  and  _4
REMARK    3  A    between atoms: _3  and  _6
REMARK    4  A    between atoms: _6  and  _7
REMARK    5  A    between atoms: _10  and  _12
REMARK    6  A    between atoms: _12  and  _13
REMARK    7  A    between atoms: _12  and  _15
REMARK    8  A    between atoms: _15  and  _16
REMARK    9  A    between atoms: _21  and  _22
REMARK   10  A    between atoms: _24  and  _26
REMARK   11  A    between atoms: _26  and  _27
REMARK   12  A    between atoms: _26  and  _29
REMARK   13  A    between atoms: _29  and  _30
REMARK   14  A    between atoms: _34  and  _35
REMARK   15  A    between atoms: _40  and  _42
REMARK   16  A    between atoms: _42  and  _43
REMARK   17  A    between atoms: _42  and  _45
REMARK   18  A    between atoms: _45  and  _46
REMARK   19  A    between atoms: _51  and  _52
REMARK   20  A    between atoms: _54  and  _56
REMARK   21  A    between atoms: _56  and  _57
REMARK   22  A    between atoms: _56  and  _59
REMARK   23  A    between atoms: _59  and  _60
REMARK   24  A    between atoms: _66  and  _68
REMARK   25  A    between atoms: _68  and  _69
REMARK   26  A    between atoms: _68  and  _71
REMARK   27  A    between atoms: _71  and  _72
REMARK   28  A    between atoms: _78  and  _80
REMARK   29  A    between atoms: _80  and  _81
REMARK   30  A    between atoms: _80  and  _83
REMARK   31  A    between atoms: _83  and  _84
REMARK   32  A    between atoms: _84  and  _85
REMARK   33  A    between atoms: _85  and  _86
REMARK   34  A    between atoms: _95  and  _97
REMARK   35  A    between atoms: _97  and  _98
REMARK   36  A    between atoms: _97  and  _100
REMARK   37  A    between atoms: _100  and  _101
REMARK   38  A    between atoms: _101  and  _102
REMARK   39  A    between atoms: _104  and  _106
REMARK   40  A    between atoms: _106  and  _107
REMARK   41  A    between atoms: _106  and  _109
REMARK   42  A    between atoms: _109  and  _110
REMARK   43  A    between atoms: _114  and  _115
REMARK   44  A    between atoms: _120  and  _122
REMARK   45  A    between atoms: _122  and  _123
REMARK   46  A    between atoms: _122  and  _125
REMARK   47  A    between atoms: _125  and  _126
REMARK   48  A    between atoms: _131  and  _133
REMARK   49  A    between atoms: _133  and  _134
REMARK   50  A    between atoms: _133  and  _136
REMARK   51  A    between atoms: _136  and  _137
REMARK   52  A    between atoms: _140  and  _142
REMARK   53  A    between atoms: _142  and  _143
REMARK   54  A    between atoms: _146  and  _148
REMARK   55  A    between atoms: _148  and  _149
REMARK   56  A    between atoms: _148  and  _151
REMARK   57  A    between atoms: _151  and  _152
REMARK   58  A    between atoms: _155  and  _157
REMARK   59  A    between atoms: _157  and  _158
REMARK   60  A    between atoms: _157  and  _160
REMARK   61  A    between atoms: _160  and  _161
REMARK   62  A    between atoms: _164  and  _166
REMARK   63  A    between atoms: _166  and  _167
REMARK   64  A    between atoms: _166  and  _169
REMARK   65  A    between atoms: _172  and  _174
REMARK   66  A    between atoms: _174  and  _175
REMARK   67  A    between atoms: _174  and  _177
REMARK   68  A    between atoms: _177  and  _178
REMARK   69  A    between atoms: _180  and  _182
REMARK   70  A    between atoms: _182  and  _183
REMARK   71  A    between atoms: _182  and  _185
REMARK   72  A    between atoms: _185  and  _186
REMARK   73  A    between atoms: _191  and  _192
REMARK   74  A    between atoms: _194  and  _196
REMARK   75  A    between atoms: _196  and  _197
REMARK   76  A    between atoms: _196  and  _199
REMARK   77  A    between atoms: _199  and  _200
REMARK   78  A    between atoms: _202  and  _204
REMARK   79  A    between atoms: _204  and  _205
REMARK   80  A    between atoms: _204  and  _207
REMARK   81  A    between atoms: _207  and  _208
REMARK   82  A    between atoms: _211  and  _213
REMARK   83  A    between atoms: _213  and  _214
REMARK   84  A    between atoms: _213  and  _216
REMARK   85  A    between atoms: _216  and  _217
REMARK   86  A    between atoms: _217  and  _218
REMARK   87  A    between atoms: _218  and  _219
REMARK   88  A    between atoms: _219  and  _220
REMARK   89  A    between atoms: _224  and  _226
REMARK   90  A    between atoms: _226  and  _227
REMARK   91  A    between atoms: _226  and  _229
REMARK   92  A    between atoms: _232  and  _234
REMARK   93  A    between atoms: _234  and  _235
REMARK   94  A    between atoms: _238  and  _240
REMARK   95  A    between atoms: _240  and  _241
REMARK   96  A    between atoms: _240  and  _243
REMARK   97  A    between atoms: _243  and  _244
REMARK   98  A    between atoms: _247  and  _249
REMARK   99  A    between atoms: _249  and  _250
REMARK  100  A    between atoms: _249  and  _252
REMARK  101  A    between atoms: _252  and  _253
REMARK  102  A    between atoms: _253  and  _254
REMARK  103  A    between atoms: _257  and  _259
REMARK  104  A    between atoms: _259  and  _260
REMARK  105  A    between atoms: _259  and  _262
REMARK  106  A    between atoms: _265  and  _267
REMARK  107  A    between atoms: _267  and  _268
REMARK  108  A    between atoms: _267  and  _270
REMARK  109  A    between atoms: _270  and  _271
REMARK  110  A    between atoms: _274  and  _276
REMARK  111  A    between atoms: _276  and  _277
REMARK  112  A    between atoms: _276  and  _279
REMARK  113  A    between atoms: _279  and  _280
REMARK  114  A    between atoms: _280  and  _281
REMARK  115  A    between atoms: _283  and  _285
REMARK  116  A    between atoms: _285  and  _286
REMARK  117  A    between atoms: _285  and  _288
REMARK  118  A    between atoms: _288  and  _289
REMARK  119  A    between atoms: _292  and  _294
REMARK  120  A    between atoms: _294  and  _295
REMARK  121  A    between atoms: _294  and  _297
REMARK  122  A    between atoms: _297  and  _298
REMARK  123  A    between atoms: _298  and  _299
REMARK  124  A    between atoms: _299  and  _300
REMARK  125  A    between atoms: _309  and  _311
REMARK  126  A    between atoms: _311  and  _312
REMARK  127  A    between atoms: _311  and  _314
REMARK  128  A    between atoms: _314  and  _315
REMARK  129  A    between atoms: _317  and  _319
REMARK  130  A    between atoms: _319  and  _320
REMARK  131  A    between atoms: _319  and  _322
REMARK  132  A    between atoms: _322  and  _323
REMARK  133  A    between atoms: _328  and  _330
REMARK  134  A    between atoms: _330  and  _331
REMARK  135  A    between atoms: _330  and  _333
REMARK  136  A    between atoms: _333  and  _334
REMARK  137  A    between atoms: _334  and  _335
REMARK  138  A    between atoms: _340  and  _342
REMARK  139  A    between atoms: _342  and  _343
REMARK  140  A    between atoms: _342  and  _345
REMARK  141  A    between atoms: _345  and  _346
REMARK  142  A    between atoms: _348  and  _350
REMARK  143  A    between atoms: _350  and  _351
REMARK  144  A    between atoms: _350  and  _353
REMARK  145  A    between atoms: _353  and  _354
REMARK  146  A    between atoms: _360  and  _362
REMARK  147  A    between atoms: _362  and  _363
REMARK  148  A    between atoms: _362  and  _365
REMARK  149  A    between atoms: _365  and  _366
REMARK  150  A    between atoms: _368  and  _370
REMARK  151  A    between atoms: _370  and  _371
REMARK  152  A    between atoms: _370  and  _373
REMARK  153  A    between atoms: _373  and  _374
REMARK  154  A    between atoms: _384  and  _386
REMARK  155  A    between atoms: _386  and  _387
REMARK  156  A    between atoms: _386  and  _389
REMARK  157  A    between atoms: _389  and  _390
REMARK  158  A    between atoms: _393  and  _395
REMARK  159  A    between atoms: _395  and  _396
REMARK  160  A    between atoms: _395  and  _398
REMARK  161  A    between atoms: _400  and  _402
REMARK  162  A    between atoms: _402  and  _403
REMARK  163  A    between atoms: _402  and  _405
REMARK  164  A    between atoms: _405  and  _406
REMARK  165  A    between atoms: _411  and  _412
REMARK  166  A    between atoms: _414  and  _416
REMARK  167  A    between atoms: _416  and  _417
REMARK  168  A    between atoms: _416  and  _419
REMARK  169  A    between atoms: _419  and  _420
REMARK  170  A    between atoms: _420  and  _421
REMARK  171  A    between atoms: _421  and  _422
REMARK  172  A    between atoms: _422  and  _423
REMARK  173  A    between atoms: _427  and  _429
REMARK  174  A    between atoms: _429  and  _430
REMARK  175  A    between atoms: _429  and  _432
REMARK  176  A    between atoms: _432  and  _433
REMARK  177  A    between atoms: _438  and  _439
REMARK  178  A    between atoms: _441  and  _443
REMARK  179  A    between atoms: _443  and  _444
REMARK  180  A    between atoms: _443  and  _446
REMARK  181  A    between atoms: _446  and  _447
REMARK  182  A    between atoms: _450  and  _452
REMARK  183  A    between atoms: _452  and  _453
REMARK  184  A    between atoms: _452  and  _455
REMARK  185  A    between atoms: _455  and  _456
REMARK  186  A    between atoms: _459  and  _461
REMARK  187  A    between atoms: _461  and  _462
REMARK  188  A    between atoms: _461  and  _464
REMARK  189  A    between atoms: _467  and  _469
REMARK  190  A    between atoms: _469  and  _470
REMARK  191  A    between atoms: _469  and  _472
REMARK  192  A    between atoms: _472  and  _473
REMARK  193  A    between atoms: _475  and  _477
REMARK  194  A    between atoms: _477  and  _478
REMARK  195  A    between atoms: _481  and  _483
REMARK  196  A    between atoms: _483  and  _484
REMARK  197  A    between atoms: _486  and  _488
REMARK  198  A    between atoms: _488  and  _489
REMARK  199  A    between atoms: _488  and  _491
REMARK  200  A    between atoms: _491  and  _492
REMARK  201  A    between atoms: _497  and  _499
REMARK  202  A    between atoms: _499  and  _500
REMARK  203  A    between atoms: _499  and  _502
REMARK  204  A    between atoms: _502  and  _503
REMARK  205  A    between atoms: _506  and  _508
REMARK  206  A    between atoms: _508  and  _509
REMARK  207  A    between atoms: _508  and  _511
REMARK  208  A    between atoms: _511  and  _512
REMARK  209  A    between atoms: _515  and  _517
REMARK  210  A    between atoms: _517  and  _518
REMARK  211  A    between atoms: _517  and  _520
REMARK  212  A    between atoms: _520  and  _521
REMARK  213  A    between atoms: _524  and  _526
REMARK  214  A    between atoms: _526  and  _527
REMARK  215  A    between atoms: _526  and  _529
REMARK  216  A    between atoms: _529  and  _530
REMARK  217  A    between atoms: _530  and  _531
REMARK  218  A    between atoms: _536  and  _538
REMARK  219  A    between atoms: _538  and  _539
REMARK  220  A    between atoms: _538  and  _541
REMARK  221  A    between atoms: _541  and  _542
REMARK  222  A    between atoms: _545  and  _547
REMARK  223  A    between atoms: _547  and  _548
REMARK  224  A    between atoms: _547  and  _550
REMARK  225  A    between atoms: _550  and  _551
REMARK  226  A    between atoms: _551  and  _552
REMARK  227  A    between atoms: _555  and  _557
REMARK  228  A    between atoms: _557  and  _558
REMARK  229  A    between atoms: _557  and  _560
REMARK  230  A    between atoms: _560  and  _561
REMARK  231  A    between atoms: _566  and  _568
REMARK  232  A    between atoms: _568  and  _569
REMARK  233  A    between atoms: _568  and  _571
REMARK  234  A    between atoms: _571  and  _572
REMARK  235  A    between atoms: _574  and  _576
REMARK  236  A    between atoms: _576  and  _577
REMARK  237  A    between atoms: _576  and  _579
REMARK  238  A    between atoms: _579  and  _580
REMARK  239  A    between atoms: _580  and  _581
REMARK  240  A    between atoms: _586  and  _588
REMARK  241  A    between atoms: _588  and  _589
REMARK  242  A    between atoms: _588  and  _591
REMARK  243  A    between atoms: _591  and  _592
REMARK  244  A    between atoms: _597  and  _598
REMARK  245  A    between atoms: _600  and  _602
REMARK  246  A    between atoms: _602  and  _603
REMARK  247  A    between atoms: _602  and  _605
REMARK  248  A    between atoms: _605  and  _606
REMARK  249  A    between atoms: _606  and  _607
REMARK  250  A    between atoms: _607  and  _608
REMARK  251  A    between atoms: _617  and  _619
REMARK  252  A    between atoms: _619  and  _620
REMARK  253  A    between atoms: _619  and  _622
REMARK  254  A    between atoms: _622  and  _623
REMARK  255  A    between atoms: _626  and  _628
REMARK  256  A    between atoms: _628  and  _629
REMARK  257  A    between atoms: _628  and  _631
REMARK  258  A    between atoms: _631  and  _632
REMARK  259  A    between atoms: _634  and  _636
REMARK  260  A    between atoms: _636  and  _637
REMARK  261  A    between atoms: _636  and  _639
REMARK  262  A    between atoms: _639  and  _640
REMARK  263  A    between atoms: _645  and  _647
REMARK  264  A    between atoms: _647  and  _648
REMARK  265  A    between atoms: _647  and  _650
REMARK  266  A    between atoms: _650  and  _651
REMARK  267  A    between atoms: _651  and  _652
REMARK  268  A    between atoms: _652  and  _653
REMARK  269  A    between atoms: _653  and  _654
REMARK  270  A    between atoms: _658  and  _660
REMARK  271  A    between atoms: _660  and  _661
REMARK  272  A    between atoms: _660  and  _663
REMARK  273  A    between atoms: _663  and  _664
REMARK  274  A    between atoms: _667  and  _669
REMARK  275  A    between atoms: _669  and  _670
REMARK  276  A    between atoms: _669  and  _672
REMARK  277  A    between atoms: _672  and  _673
REMARK  278  A    between atoms: _676  and  _678
REMARK  279  A    between atoms: _678  and  _679
REMARK  280  A    between atoms: _678  and  _681
REMARK  281  A    between atoms: _684  and  _686
REMARK  282  A    between atoms: _686  and  _687
REMARK  283  A    between atoms: _686  and  _689
REMARK  284  A    between atoms: _689  and  _690
REMARK                            x       y       z     vdW  Elec       q    Type
REMARK                         _______ _______ _______ _____ _____    ______ ____
ROOT
ATOM      1  C   GLY A   2      67.080  -0.518 -14.093  0.00  0.00    +0.243 C 
ATOM      2  N   HIS A   3      66.051   0.315 -14.070  0.00  0.00    -0.298 N 
ATOM      3  H   HIS A   3      66.237   1.333 -13.967  0.00  0.00    +0.150 HD
ATOM      4  O   GLY A   2      66.960  -1.755 -14.332  0.00  0.00    -0.273 OA
ENDROOT
BRANCH   1   5
ATOM      5  CA  GLY A   2      68.441   0.095 -13.819  0.00  0.00    +0.176 C 
BRANCH   5   8
ATOM      6  C   ALA A   1      68.742   1.495 -11.867  0.00  0.00    +0.238 C 
ATOM      7  O   ALA A   1      68.866   0.495 -11.149  0.00  0.00    -0.274 OA
ATOM      8  N   GLY A   2      68.466   1.423 -13.167  0.00  0.00    -0.296 N 
ATOM      9  H   GLY A   2      68.271   2.285 -13.715  0.00  0.00    +0.150 HD
BRANCH   6  10
ATOM     10  CA  ALA A   1      68.865   2.866 -11.262  0.00  0.00    +0.145 C 
ATOM     11  CB  ALA A   1      68.069   2.931  -9.955  0.00  0.00    +0.028 C 
BRANCH  10  12
ATOM     12  N   ALA A   1      68.429   3.901 -12.213  0.00  0.00    -0.238 NA
ATOM     13  H   ALA A   1      67.415   3.997 -12.425  0.00  0.00    +0.142 HD
ENDBRANCH  10  12
ENDBRANCH   6  10
ENDBRANCH   5   8
ENDBRANCH   1   5
BRANCH   2  14
ATOM     14  CA  HIS A   3      64.666  -0.134 -14.183  0.00  0.00    +0.143 C 
BRANCH  14  15
ATOM     15  C   HIS A   3      63.996   0.462 -15.414  0.00  0.00    +0.227 C 
ATOM     16  O   HIS A   3      64.361   1.550 -15.864  0.00  0.00    -0.286 OA
ENDBRANCH  14  15
BRANCH  14  17
ATOM     17  CB  HIS A   3      63.877   0.168 -12.888  0.00  0.00    +0.075 C 
BRANCH  17  18
ATOM     18  CG  HIS A   3      64.257  -0.735 -11.756  0.00  0.00    +0.082 A 
ATOM     19  CD2 HIS A   3      64.875  -0.490 -10.572  0.00  0.00    +0.115 A 
ATOM     20  NE2 HIS A   3      65.031  -1.702  -9.942  0.00  0.00    -0.221 NA
ATOM     21  CE1 HIS A   3      64.531  -2.655 -10.710  0.00  0.00    +0.199 A 
ATOM     22  ND1 HIS A   3      64.075  -2.097 -11.817  0.00  0.00    -0.227 NA
ENDBRANCH  17  18
ENDBRANCH  14  17
ENDBRANCH   2  14
TORSDOF 8
REMARK  Name = ../refined-set-2016/2o4j/2o4j_pocket.pdb
REMARK  284 active torsions:
REMARK  status: ('A' for Active; 'I' for Inactive)
REMARK    1  A    between atoms: _1  and  _3
REMARK    2  A    between atoms: _3  and  _4
REMARK    3  A    between atoms: _3  and  _6
REMARK    4  A    between atoms: _6  and  _7
REMARK    5  A    between atoms: _10  and  _12
REMARK    6  A    between atoms: _12  and  _13
REMARK    7  A    between atoms: _12  and  _15
REMARK    8  A    between atoms: _15  and  _16
REMARK    9  A    between atoms: _21  and  _22
REMARK   10  A    between atoms: _24  and  _26
REMARK   11  A    between atoms: _26  and  _27
REMARK   12  A    between atoms: _26  and  _29
REMARK   13  A    between atoms: _29  and  _30
REMARK   14  A    between atoms: _34  and  _35
REMARK   15  A    between atoms: _40  and  _42
REMARK   16  A    between atoms: _42  and  _43
REMARK   17  A    between atoms: _42  and  _45
REMARK   18  A    between atoms: _45  and  _46
REMARK   19  A    between atoms: _51  and  _52
REMARK   20  A    between atoms: _54  and  _56
REMARK   21  A    between atoms: _56  and  _57
REMARK   22  A    between atoms: _56  and  _59
REMARK   23  A    between atoms: _59  and  _60
REMARK   24  A    between atoms: _66  and  _68
REMARK   25  A    between atoms: _68  and  _69
REMARK   26  A    between atoms: _68  and  _71
REMARK   27  A    between atoms: _71  and  _72
REMARK   28  A    between atoms: _78  and  _80
REMARK   29  A    between atoms: _80  and  _81
REMARK   30  A    between atoms: _80  and  _83
REMARK   31  A    between atoms: _83  and  _84
REMARK   32  A    between atoms: _84  and  _85
REMARK   33  A    between atoms: _85  and  _86
REMARK   34  A    between atoms: _95  and  _97
REMARK   35  A    between atoms: _97  and  _98
REMARK   36  A    between atoms: _97  and  _100
REMARK   37  A    between atoms: _100  and  _101
REMARK   38  A    between atoms: _101  and  _102
REMARK   39  A    between atoms: _104  and  _106
REMARK   40  A    between atoms: _106  and  _107
REMARK   41  A    between atoms: _106  and  _109
REMARK   42  A    between atoms: _109  and  _110
REMARK   43  A    between atoms: _114  and  _115
REMARK   44  A    between atoms: _120  and  _122
REMARK   45  A    between atoms: _122  and  _123
REMARK   46  A    between atoms: _122  and  _125
REMARK   47  A    between atoms: _125  and  _126
REMARK   48  A    between atoms: _131  and  _133
REMARK   49  A    between atoms: _133  and  _134
REMARK   50  A    between atoms: _133  and  _136
REMARK   51  A    between atoms: _136  and  _137
REMARK   52  A    between atoms: _140  and  _142
REMARK   53  A    between atoms: _142  and  _143
REMARK   54  A    between atoms: _146  and  _148
REMARK   55  A    between atoms: _148  and  _149
REMARK   56  A    between atoms: _148  and  _151
REMARK   57  A    between atoms: _151  and  _152
REMARK   58  A    between atoms: _155  and  _157
REMARK   59  A    between atoms: _157  and  _158
REMARK   60  A    between atoms: _157  and  _160
REMARK   61  A    between atoms: _160  and  _161
REMARK   62  A    between atoms: _164  and  _166
REMARK   63  A    between atoms: _166  and  _167
REMARK   64  A    between atoms: _166  and  _169
REMARK   65  A    between atoms: _172  and  _174
REMARK   66  A    between atoms: _174  and  _175
REMARK   67  A    between atoms: _174  and  _177
REMARK   68  A    between atoms: _177  and  _178
REMARK   69  A    between atoms: _180  and  _182
REMARK   70  A    between atoms: _182  and  _183
REMARK   71  A    between atoms: _182  and  _185
REMARK   72  A    between atoms: _185  and  _186
REMARK   73  A    between atoms: _191  and  _192
REMARK   74  A    between atoms: _194  and  _196
REMARK   75  A    between atoms: _196  and  _197
REMARK   76  A    between atoms: _196  and  _199
REMARK   77  A    between atoms: _199  and  _200
REMARK   78  A    between atoms: _202  and  _204
REMARK   79  A    between atoms: _204  and  _205
REMARK   80  A    between atoms: _204  and  _207
REMARK   81  A    between atoms: _207  and  _208
REMARK   82  A    between atoms: _211  and  _213
REMARK   83  A    between atoms: _213  and  _214
REMARK   84  A    between atoms: _213  and  _216
REMARK   85  A    between atoms: _216  and  _217
REMARK   86  A    between atoms: _217  and  _218
REMARK   87  A    between atoms: _218  and  _219
REMARK   88  A    between atoms: _219  and  _220
REMARK   89  A    between atoms: _224  and  _226
REMARK   90  A    between atoms: _226  and  _227
REMARK   91  A    between atoms: _226  and  _229
REMARK   92  A    between atoms: _232  and  _234
REMARK   93  A    between atoms: _234  and  _235
REMARK   94  A    between atoms: _238  and  _240
REMARK   95  A    between atoms: _240  and  _241
REMARK   96  A    between atoms: _240  and  _243
REMARK   97  A    between atoms: _243  and  _244
REMARK   98  A    between atoms: _247  and  _249
REMARK   99  A    between atoms: _249  and  _250
REMARK  100  A    between atoms: _249  and  _252
REMARK  101  A    between atoms: _252  and  _253
REMARK  102  A    between atoms: _253  and  _254
REMARK  103  A    between atoms: _257  and  _259
REMARK  104  A    between atoms: _259  and  _260
REMARK  105  A    between atoms: _259  and  _262
REMARK  106  A    between atoms: _265  and  _267
REMARK  107  A    between atoms: _267  and  _268
REMARK  108  A    between atoms: _267  and  _270
REMARK  109  A    between atoms: _270  and  _271
REMARK  110  A    between atoms: _274  and  _276
REMARK  111  A    between atoms: _276  and  _277
REMARK  112  A    between atoms: _276  and  _279
REMARK  113  A    between atoms: _279  and  _280
REMARK  114  A    between atoms: _280  and  _281
REMARK  115  A    between atoms: _283  and  _285
REMARK  116  A    between atoms: _285  and  _286
REMARK  117  A    between atoms: _285  and  _288
REMARK  118  A    between atoms: _288  and  _289
REMARK  119  A    between atoms: _292  and  _294
REMARK  120  A    between atoms: _294  and  _295
REMARK  121  A    between atoms: _294  and  _297
REMARK  122  A    between atoms: _297  and  _298
REMARK  123  A    between atoms: _298  and  _299
REMARK  124  A    between atoms: _299  and  _300
REMARK  125  A    between atoms: _309  and  _311
REMARK  126  A    between atoms: _311  and  _312
REMARK  127  A    between atoms: _311  and  _314
REMARK  128  A    between atoms: _314  and  _315
REMARK  129  A    between atoms: _317  and  _319
REMARK  130  A    between atoms: _319  and  _320
REMARK  131  A    between atoms: _319  and  _322
REMARK  132  A    between atoms: _322  and  _323
REMARK  133  A    between atoms: _328  and  _330
REMARK  134  A    between atoms: _330  and  _331
REMARK  135  A    between atoms: _330  and  _333
REMARK  136  A    between atoms: _333  and  _334
REMARK  137  A    between atoms: _334  and  _335
REMARK  138  A    between atoms: _340  and  _342
REMARK  139  A    between atoms: _342  and  _343
REMARK  140  A    between atoms: _342  and  _345
REMARK  141  A    between atoms: _345  and  _346
REMARK  142  A    between atoms: _348  and  _350
REMARK  143  A    between atoms: _350  and  _351
REMARK  144  A    between atoms: _350  and  _353
REMARK  145  A    between atoms: _353  and  _354
REMARK  146  A    between atoms: _360  and  _362
REMARK  147  A    between atoms: _362  and  _363
REMARK  148  A    between atoms: _362  and  _365
REMARK  149  A    between atoms: _365  and  _366
REMARK  150  A    between atoms: _368  and  _370
REMARK  151  A    between atoms: _370  and  _371
REMARK  152  A    between atoms: _370  and  _373
REMARK  153  A    between atoms: _373  and  _374
REMARK  154  A    between atoms: _384  and  _386
REMARK  155  A    between atoms: _386  and  _387
REMARK  156  A    between atoms: _386  and  _389
REMARK  157  A    between atoms: _389  and  _390
REMARK  158  A    between atoms: _393  and  _395
REMARK  159  A    between atoms: _395  and  _396
REMARK  160  A    between atoms: _395  and  _398
REMARK  161  A    between atoms: _400  and  _402
REMARK  162  A    between atoms: _402  and  _403
REMARK  163  A    between atoms: _402  and  _405
REMARK  164  A    between atoms: _405  and  _406
REMARK  165  A    between atoms: _411  and  _412
REMARK  166  A    between atoms: _414  and  _416
REMARK  167  A    between atoms: _416  and  _417
REMARK  168  A    between atoms: _416  and  _419
REMARK  169  A    between atoms: _419  and  _420
REMARK  170  A    between atoms: _420  and  _421
REMARK  171  A    between atoms: _421  and  _422
REMARK  172  A    between atoms: _422  and  _423
REMARK  173  A    between atoms: _427  and  _429
REMARK  174  A    between atoms: _429  and  _430
REMARK  175  A    between atoms: _429  and  _432
REMARK  176  A    between atoms: _432  and  _433
REMARK  177  A    between atoms: _438  and  _439
REMARK  178  A    between atoms: _441  and  _443
REMARK  179  A    between atoms: _443  and  _444
REMARK  180  A    between atoms: _443  and  _446
REMARK  181  A    between atoms: _446  and  _447
REMARK  182  A    between atoms: _450  and  _452
REMARK  183  A    between atoms: _452  and  _453
REMARK  184  A    between atoms: _452  and  _455
REMARK  185  A    between atoms: _455  and  _456
REMARK  186  A    between atoms: _459  and  _461
REMARK  187  A    between atoms: _461  and  _462
REMARK  188  A    between atoms: _461  and  _464
REMARK  189  A    between atoms: _467  and  _469
REMARK  190  A    between atoms: _469  and  _470
REMARK  191  A    between atoms: _469  and  _472
REMARK  192  A    between atoms: _472  and  _473
REMARK  193  A    between atoms: _475  and  _477
REMARK  194  A    between atoms: _477  and  _478
REMARK  195  A    between atoms: _481  and  _483
REMARK  196  A    between atoms: _483  and  _484
REMARK  197  A    between atoms: _486  and  _488
REMARK  198  A    between atoms: _488  and  _489
REMARK  199  A    between atoms: _488  and  _491
REMARK  200  A    between atoms: _491  and  _492
REMARK  201  A    between atoms: _497  and  _499
REMARK  202  A    between atoms: _499  and  _500
REMARK  203  A    between atoms: _499  and  _502
REMARK  204  A    between atoms: _502  and  _503
REMARK  205  A    between atoms: _506  and  _508
REMARK  206  A    between atoms: _508  and  _509
REMARK  207  A    between atoms: _508  and  _511
REMARK  208  A    between atoms: _511  and  _512
REMARK  209  A    between atoms: _515  and  _517
REMARK  210  A    between atoms: _517  and  _518
REMARK  211  A    between atoms: _517  and  _520
REMARK  212  A    between atoms: _520  and  _521
REMARK  213  A    between atoms: _524  and  _526
REMARK  214  A    between atoms: _526  and  _527
REMARK  215  A    between atoms: _526  and  _529
REMARK  216  A    between atoms: _529  and  _530
REMARK  217  A    between atoms: _530  and  _531
REMARK  218  A    between atoms: _536  and  _538
REMARK  219  A    between atoms: _538  and  _539
REMARK  220  A    between atoms: _538  and  _541
REMARK  221  A    between atoms: _541  and  _542
REMARK  222  A    between atoms: _545  and  _547
REMARK  223  A    between atoms: _547  and  _548
REMARK  224  A    between atoms: _547  and  _550
REMARK  225  A    between atoms: _550  and  _551
REMARK  226  A    between atoms: _551  and  _552
REMARK  227  A    between atoms: _555  and  _557
REMARK  228  A    between atoms: _557  and  _558
REMARK  229  A    between atoms: _557  and  _560
REMARK  230  A    between atoms: _560  and  _561
REMARK  231  A    between atoms: _566  and  _568
REMARK  232  A    between atoms: _568  and  _569
REMARK  233  A    between atoms: _568  and  _571
REMARK  234  A    between atoms: _571  and  _572
REMARK  235  A    between atoms: _574  and  _576
REMARK  236  A    between atoms: _576  and  _577
REMARK  237  A    between atoms: _576  and  _579
REMARK  238  A    between atoms: _579  and  _580
REMARK  239  A    between atoms: _580  and  _581
REMARK  240  A    between atoms: _586  and  _588
REMARK  241  A    between atoms: _588  and  _589
REMARK  242  A    between atoms: _588  and  _591
REMARK  243  A    between atoms: _591  and  _592
REMARK  244  A    between atoms: _597  and  _598
REMARK  245  A    between atoms: _600  and  _602
REMARK  246  A    between atoms: _602  and  _603
REMARK  247  A    between atoms: _602  and  _605
REMARK  248  A    between atoms: _605  and  _606
REMARK  249  A    between atoms: _606  and  _607
REMARK  250  A    between atoms: _607  and  _608
REMARK  251  A    between atoms: _617  and  _619
REMARK  252  A    between atoms: _619  and  _620
REMARK  253  A    between atoms: _619  and  _622
REMARK  254  A    between atoms: _622  and  _623
REMARK  255  A    between atoms: _626  and  _628
REMARK  256  A    between atoms: _628  and  _629
REMARK  257  A    between atoms: _628  and  _631
REMARK  258  A    between atoms: _631  and  _632
REMARK  259  A    between atoms: _634  and  _636
REMARK  260  A    between atoms: _636  and  _637
REMARK  261  A    between atoms: _636  and  _639
REMARK  262  A    between atoms: _639  and  _640
REMARK  263  A    between atoms: _645  and  _647
REMARK  264  A    between atoms: _647  and  _648
REMARK  265  A    between atoms: _647  and  _650
REMARK  266  A    between atoms: _650  and  _651
REMARK  267  A    between atoms: _651  and  _652
REMARK  268  A    between atoms: _652  and  _653
REMARK  269  A    between atoms: _653  and  _654
REMARK  270  A    between atoms: _658  and  _660
REMARK  271  A    between atoms: _660  and  _661
REMARK  272  A    between atoms: _660  and  _663
REMARK  273  A    between atoms: _663  and  _664
REMARK  274  A    between atoms: _667  and  _669
REMARK  275  A    between atoms: _669  and  _670
REMARK  276  A    between atoms: _669  and  _672
REMARK  277  A    between atoms: _672  and  _673
REMARK  278  A    between atoms: _676  and  _678
REMARK  279  A    between atoms: _678  and  _679
REMARK  280  A    between atoms: _678  and  _681
REMARK  281  A    between atoms: _684  and  _686
REMARK  282  A    between atoms: _686  and  _687
REMARK  283  A    between atoms: _686  and  _689
REMARK  284  A    between atoms: _689  and  _690
REMARK                            x       y       z     vdW  Elec       q    Type
REMARK                         _______ _______ _______ _____ _____    ______ ____
ROOT
ATOM      1  C   LEU A   1      57.417  -0.160 -13.369  0.00  0.00    +0.238 C 
ATOM      2  O   LEU A   1      56.496  -0.022 -12.560  0.00  0.00    -0.274 OA
ATOM      3  N   ILE A   2      58.045   0.865 -13.936  0.00  0.00    -0.298 N 
ATOM      4  H   ILE A   2      58.705   0.686 -14.720  0.00  0.00    +0.150 HD
ENDROOT
BRANCH   1   5
ATOM      5  CA  LEU A   1      57.907  -1.542 -13.751  0.00  0.00    +0.145 C 
BRANCH   5   6
ATOM      6  N   LEU A   1      58.103  -1.684 -15.196  0.00  0.00    -0.238 NA
ATOM      7  H   LEU A   1      58.998  -1.363 -15.617  0.00  0.00    +0.142 HD
ENDBRANCH   5   6
BRANCH   5   8
ATOM      8  CB  LEU A   1      59.208  -1.829 -12.997  0.00  0.00    +0.026 C 
BRANCH   8   9
ATOM      9  CG  LEU A   1      59.172  -1.597 -11.466  0.00  0.00    +0.002 C 
ATOM     10  CD2 LEU A   1      60.555  -1.774 -10.814  0.00  0.00    +0.000 C 
ATOM     11  CD1 LEU A   1      58.159  -2.495 -10.837  0.00  0.00    +0.000 C 
ENDBRANCH   8   9
ENDBRANCH   5   8
ENDBRANCH   1   5
BRANCH   3  12
ATOM     12  CA  ILE A   2      57.827   2.249 -13.479  0.00  0.00    +0.137 C 
BRANCH  12  13
ATOM     13  C   ILE A   2      56.424   2.807 -13.773  0.00  0.00    +0.227 C 
ATOM     14  O   ILE A   2      55.857   3.552 -12.959  0.00  0.00    -0.286 OA
ENDBRANCH  12  13
BRANCH  12  15
ATOM     15  CB  ILE A   2      58.913   3.186 -14.044  0.00  0.00    +0.026 C 
ATOM     16  CG2 ILE A   2      58.612   4.648 -13.686  0.00  0.00    +0.002 C 
BRANCH  15  17
ATOM     17  CG1 ILE A   2      60.298   2.755 -13.570  0.00  0.00    +0.002 C 
ATOM     18  CD1 ILE A   2      61.443   3.456 -14.231  0.00  0.00    +0.000 C 
ENDBRANCH  15  17
ENDBRANCH  12  15
ENDBRANCH   3  12
TORSDOF 8
REMARK  Name = ../refined-set-2016/2o4j/2o4j_pocket.pdb
REMARK  284 active torsions:
REMARK  status: ('A' for Active; 'I' for Inactive)
REMARK    1  A    between atoms: _1  and  _3
REMARK    2  A    between atoms: _3  and  _4
REMARK    3  A    between atoms: _3  and  _6
REMARK    4  A    between atoms: _6  and  _7
REMARK    5  A    between atoms: _10  and  _12
REMARK    6  A    between atoms: _12  and  _13
REMARK    7  A    between atoms: _12  and  _15
REMARK    8  A    between atoms: _15  and  _16
REMARK    9  A    between atoms: _21  and  _22
REMARK   10  A    between atoms: _24  and  _26
REMARK   11  A    between atoms: _26  and  _27
REMARK   12  A    between atoms: _26  and  _29
REMARK   13  A    between atoms: _29  and  _30
REMARK   14  A    between atoms: _34  and  _35
REMARK   15  A    between atoms: _40  and  _42
REMARK   16  A    between atoms: _42  and  _43
REMARK   17  A    between atoms: _42  and  _45
REMARK   18  A    between atoms: _45  and  _46
REMARK   19  A    between atoms: _51  and  _52
REMARK   20  A    between atoms: _54  and  _56
REMARK   21  A    between atoms: _56  and  _57
REMARK   22  A    between atoms: _56  and  _59
REMARK   23  A    between atoms: _59  and  _60
REMARK   24  A    between atoms: _66  and  _68
REMARK   25  A    between atoms: _68  and  _69
REMARK   26  A    between atoms: _68  and  _71
REMARK   27  A    between atoms: _71  and  _72
REMARK   28  A    between atoms: _78  and  _80
REMARK   29  A    between atoms: _80  and  _81
REMARK   30  A    between atoms: _80  and  _83
REMARK   31  A    between atoms: _83  and  _84
REMARK   32  A    between atoms: _84  and  _85
REMARK   33  A    between atoms: _85  and  _86
REMARK   34  A    between atoms: _95  and  _97
REMARK   35  A    between atoms: _97  and  _98
REMARK   36  A    between atoms: _97  and  _100
REMARK   37  A    between atoms: _100  and  _101
REMARK   38  A    between atoms: _101  and  _102
REMARK   39  A    between atoms: _104  and  _106
REMARK   40  A    between atoms: _106  and  _107
REMARK   41  A    between atoms: _106  and  _109
REMARK   42  A    between atoms: _109  and  _110
REMARK   43  A    between atoms: _114  and  _115
REMARK   44  A    between atoms: _120  and  _122
REMARK   45  A    between atoms: _122  and  _123
REMARK   46  A    between atoms: _122  and  _125
REMARK   47  A    between atoms: _125  and  _126
REMARK   48  A    between atoms: _131  and  _133
REMARK   49  A    between atoms: _133  and  _134
REMARK   50  A    between atoms: _133  and  _136
REMARK   51  A    between atoms: _136  and  _137
REMARK   52  A    between atoms: _140  and  _142
REMARK   53  A    between atoms: _142  and  _143
REMARK   54  A    between atoms: _146  and  _148
REMARK   55  A    between atoms: _148  and  _149
REMARK   56  A    between atoms: _148  and  _151
REMARK   57  A    between atoms: _151  and  _152
REMARK   58  A    between atoms: _155  and  _157
REMARK   59  A    between atoms: _157  and  _158
REMARK   60  A    between atoms: _157  and  _160
REMARK   61  A    between atoms: _160  and  _161
REMARK   62  A    between atoms: _164  and  _166
REMARK   63  A    between atoms: _166  and  _167
REMARK   64  A    between atoms: _166  and  _169
REMARK   65  A    between atoms: _172  and  _174
REMARK   66  A    between atoms: _174  and  _175
REMARK   67  A    between atoms: _174  and  _177
REMARK   68  A    between atoms: _177  and  _178
REMARK   69  A    between atoms: _180  and  _182
REMARK   70  A    between atoms: _182  and  _183
REMARK   71  A    between atoms: _182  and  _185
REMARK   72  A    between atoms: _185  and  _186
REMARK   73  A    between atoms: _191  and  _192
REMARK   74  A    between atoms: _194  and  _196
REMARK   75  A    between atoms: _196  and  _197
REMARK   76  A    between atoms: _196  and  _199
REMARK   77  A    between atoms: _199  and  _200
REMARK   78  A    between atoms: _202  and  _204
REMARK   79  A    between atoms: _204  and  _205
REMARK   80  A    between atoms: _204  and  _207
REMARK   81  A    between atoms: _207  and  _208
REMARK   82  A    between atoms: _211  and  _213
REMARK   83  A    between atoms: _213  and  _214
REMARK   84  A    between atoms: _213  and  _216
REMARK   85  A    between atoms: _216  and  _217
REMARK   86  A    between atoms: _217  and  _218
REMARK   87  A    between atoms: _218  and  _219
REMARK   88  A    between atoms: _219  and  _220
REMARK   89  A    between atoms: _224  and  _226
REMARK   90  A    between atoms: _226  and  _227
REMARK   91  A    between atoms: _226  and  _229
REMARK   92  A    between atoms: _232  and  _234
REMARK   93  A    between atoms: _234  and  _235
REMARK   94  A    between atoms: _238  and  _240
REMARK   95  A    between atoms: _240  and  _241
REMARK   96  A    between atoms: _240  and  _243
REMARK   97  A    between atoms: _243  and  _244
REMARK   98  A    between atoms: _247  and  _249
REMARK   99  A    between atoms: _249  and  _250
REMARK  100  A    between atoms: _249  and  _252
REMARK  101  A    between atoms: _252  and  _253
REMARK  102  A    between atoms: _253  and  _254
REMARK  103  A    between atoms: _257  and  _259
REMARK  104  A    between atoms: _259  and  _260
REMARK  105  A    between atoms: _259  and  _262
REMARK  106  A    between atoms: _265  and  _267
REMARK  107  A    between atoms: _267  and  _268
REMARK  108  A    between atoms: _267  and  _270
REMARK  109  A    between atoms: _270  and  _271
REMARK  110  A    between atoms: _274  and  _276
REMARK  111  A    between atoms: _276  and  _277
REMARK  112  A    between atoms: _276  and  _279
REMARK  113  A    between atoms: _279  and  _280
REMARK  114  A    between atoms: _280  and  _281
REMARK  115  A    between atoms: _283  and  _285
REMARK  116  A    between atoms: _285  and  _286
REMARK  117  A    between atoms: _285  and  _288
REMARK  118  A    between atoms: _288  and  _289
REMARK  119  A    between atoms: _292  and  _294
REMARK  120  A    between atoms: _294  and  _295
REMARK  121  A    between atoms: _294  and  _297
REMARK  122  A    between atoms: _297  and  _298
REMARK  123  A    between atoms: _298  and  _299
REMARK  124  A    between atoms: _299  and  _300
REMARK  125  A    between atoms: _309  and  _311
REMARK  126  A    between atoms: _311  and  _312
REMARK  127  A    between atoms: _311  and  _314
REMARK  128  A    between atoms: _314  and  _315
REMARK  129  A    between atoms: _317  and  _319
REMARK  130  A    between atoms: _319  and  _320
REMARK  131  A    between atoms: _319  and  _322
REMARK  132  A    between atoms: _322  and  _323
REMARK  133  A    between atoms: _328  and  _330
REMARK  134  A    between atoms: _330  and  _331
REMARK  135  A    between atoms: _330  and  _333
REMARK  136  A    between atoms: _333  and  _334
REMARK  137  A    between atoms: _334  and  _335
REMARK  138  A    between atoms: _340  and  _342
REMARK  139  A    between atoms: _342  and  _343
REMARK  140  A    between atoms: _342  and  _345
REMARK  141  A    between atoms: _345  and  _346
REMARK  142  A    between atoms: _348  and  _350
REMARK  143  A    between atoms: _350  and  _351
REMARK  144  A    between atoms: _350  and  _353
REMARK  145  A    between atoms: _353  and  _354
REMARK  146  A    between atoms: _360  and  _362
REMARK  147  A    between atoms: _362  and  _363
REMARK  148  A    between atoms: _362  and  _365
REMARK  149  A    between atoms: _365  and  _366
REMARK  150  A    between atoms: _368  and  _370
REMARK  151  A    between atoms: _370  and  _371
REMARK  152  A    between atoms: _370  and  _373
REMARK  153  A    between atoms: _373  and  _374
REMARK  154  A    between atoms: _384  and  _386
REMARK  155  A    between atoms: _386  and  _387
REMARK  156  A    between atoms: _386  and  _389
REMARK  157  A    between atoms: _389  and  _390
REMARK  158  A    between atoms: _393  and  _395
REMARK  159  A    between atoms: _395  and  _396
REMARK  160  A    between atoms: _395  and  _398
REMARK  161  A    between atoms: _400  and  _402
REMARK  162  A    between atoms: _402  and  _403
REMARK  163  A    between atoms: _402  and  _405
REMARK  164  A    between atoms: _405  and  _406
REMARK  165  A    between atoms: _411  and  _412
REMARK  166  A    between atoms: _414  and  _416
REMARK  167  A    between atoms: _416  and  _417
REMARK  168  A    between atoms: _416  and  _419
REMARK  169  A    between atoms: _419  and  _420
REMARK  170  A    between atoms: _420  and  _421
REMARK  171  A    between atoms: _421  and  _422
REMARK  172  A    between atoms: _422  and  _423
REMARK  173  A    between atoms: _427  and  _429
REMARK  174  A    between atoms: _429  and  _430
REMARK  175  A    between atoms: _429  and  _432
REMARK  176  A    between atoms: _432  and  _433
REMARK  177  A    between atoms: _438  and  _439
REMARK  178  A    between atoms: _441  and  _443
REMARK  179  A    between atoms: _443  and  _444
REMARK  180  A    between atoms: _443  and  _446
REMARK  181  A    between atoms: _446  and  _447
REMARK  182  A    between atoms: _450  and  _452
REMARK  183  A    between atoms: _452  and  _453
REMARK  184  A    between atoms: _452  and  _455
REMARK  185  A    between atoms: _455  and  _456
REMARK  186  A    between atoms: _459  and  _461
REMARK  187  A    between atoms: _461  and  _462
REMARK  188  A    between atoms: _461  and  _464
REMARK  189  A    between atoms: _467  and  _469
REMARK  190  A    between atoms: _469  and  _470
REMARK  191  A    between atoms: _469  and  _472
REMARK  192  A    between atoms: _472  and  _473
REMARK  193  A    between atoms: _475  and  _477
REMARK  194  A    between atoms: _477  and  _478
REMARK  195  A    between atoms: _481  and  _483
REMARK  196  A    between atoms: _483  and  _484
REMARK  197  A    between atoms: _486  and  _488
REMARK  198  A    between atoms: _488  and  _489
REMARK  199  A    between atoms: _488  and  _491
REMARK  200  A    between atoms: _491  and  _492
REMARK  201  A    between atoms: _497  and  _499
REMARK  202  A    between atoms: _499  and  _500
REMARK  203  A    between atoms: _499  and  _502
REMARK  204  A    between atoms: _502  and  _503
REMARK  205  A    between atoms: _506  and  _508
REMARK  206  A    between atoms: _508  and  _509
REMARK  207  A    between atoms: _508  and  _511
REMARK  208  A    between atoms: _511  and  _512
REMARK  209  A    between atoms: _515  and  _517
REMARK  210  A    between atoms: _517  and  _518
REMARK  211  A    between atoms: _517  and  _520
REMARK  212  A    between atoms: _520  and  _521
REMARK  213  A    between atoms: _524  and  _526
REMARK  214  A    between atoms: _526  and  _527
REMARK  215  A    between atoms: _526  and  _529
REMARK  216  A    between atoms: _529  and  _530
REMARK  217  A    between atoms: _530  and  _531
REMARK  218  A    between atoms: _536  and  _538
REMARK  219  A    between atoms: _538  and  _539
REMARK  220  A    between atoms: _538  and  _541
REMARK  221  A    between atoms: _541  and  _542
REMARK  222  A    between atoms: _545  and  _547
REMARK  223  A    between atoms: _547  and  _548
REMARK  224  A    between atoms: _547  and  _550
REMARK  225  A    between atoms: _550  and  _551
REMARK  226  A    between atoms: _551  and  _552
REMARK  227  A    between atoms: _555  and  _557
REMARK  228  A    between atoms: _557  and  _558
REMARK  229  A    between atoms: _557  and  _560
REMARK  230  A    between atoms: _560  and  _561
REMARK  231  A    between atoms: _566  and  _568
REMARK  232  A    between atoms: _568  and  _569
REMARK  233  A    between atoms: _568  and  _571
REMARK  234  A    between atoms: _571  and  _572
REMARK  235  A    between atoms: _574  and  _576
REMARK  236  A    between atoms: _576  and  _577
REMARK  237  A    between atoms: _576  and  _579
REMARK  238  A    between atoms: _579  and  _580
REMARK  239  A    between atoms: _580  and  _581
REMARK  240  A    between atoms: _586  and  _588
REMARK  241  A    between atoms: _588  and  _589
REMARK  242  A    between atoms: _588  and  _591
REMARK  243  A    between atoms: _591  and  _592
REMARK  244  A    between atoms: _597  and  _598
REMARK  245  A    between atoms: _600  and  _602
REMARK  246  A    between atoms: _602  and  _603
REMARK  247  A    between atoms: _602  and  _605
REMARK  248  A    between atoms: _605  and  _606
REMARK  249  A    between atoms: _606  and  _607
REMARK  250  A    between atoms: _607  and  _608
REMARK  251  A    between atoms: _617  and  _619
REMARK  252  A    between atoms: _619  and  _620
REMARK  253  A    between atoms: _619  and  _622
REMARK  254  A    between atoms: _622  and  _623
REMARK  255  A    between atoms: _626  and  _628
REMARK  256  A    between atoms: _628  and  _629
REMARK  257  A    between atoms: _628  and  _631
REMARK  258  A    between atoms: _631  and  _632
REMARK  259  A    between atoms: _634  and  _636
REMARK  260  A    between atoms: _636  and  _637
REMARK  261  A    between atoms: _636  and  _639
REMARK  262  A    between atoms: _639  and  _640
REMARK  263  A    between atoms: _645  and  _647
REMARK  264  A    between atoms: _647  and  _648
REMARK  265  A    between atoms: _647  and  _650
REMARK  266  A    between atoms: _650  and  _651
REMARK  267  A    between atoms: _651  and  _652
REMARK  268  A    between atoms: _652  and  _653
REMARK  269  A    between atoms: _653  and  _654
REMARK  270  A    between atoms: _658  and  _660
REMARK  271  A    between atoms: _660  and  _661
REMARK  272  A    between atoms: _660  and  _663
REMARK  273  A    between atoms: _663  and  _664
REMARK  274  A    between atoms: _667  and  _669
REMARK  275  A    between atoms: _669  and  _670
REMARK  276  A    between atoms: _669  and  _672
REMARK  277  A    between atoms: _672  and  _673
REMARK  278  A    between atoms: _676  and  _678
REMARK  279  A    between atoms: _678  and  _679
REMARK  280  A    between atoms: _678  and  _681
REMARK  281  A    between atoms: _684  and  _686
REMARK  282  A    between atoms: _686  and  _687
REMARK  283  A    between atoms: _686  and  _689
REMARK  284  A    between atoms: _689  and  _690
REMARK                            x       y       z     vdW  Elec       q    Type
REMARK                         _______ _______ _______ _____ _____    ______ ____
ROOT
ATOM      1  CA  LEU A   1      54.504   1.867 -10.057  0.00  0.00    +0.133 C 
ENDROOT
BRANCH   1   2
ATOM      2  N   LEU A   1      54.106   1.306 -11.343  0.00  0.00    -0.239 NA
ATOM      3  H   LEU A   1      54.838   1.081 -12.047  0.00  0.00    +0.142 HD
ENDBRANCH   1   2
BRANCH   1   4
ATOM      4  C   LEU A   1      53.896   3.248  -9.869  0.00  0.00    +0.224 C 
ATOM      5  O   LEU A   1      53.299   3.530  -8.830  0.00  0.00    -0.287 OA
ENDBRANCH   1   4
BRANCH   1   6
ATOM      6  CB  LEU A   1      56.041   1.860  -9.906  0.00  0.00    +0.025 C 
BRANCH   6   7
ATOM      7  CG  LEU A   1      56.569   2.631  -8.684  0.00  0.00    +0.002 C 
ATOM      8  CD2 LEU A   1      56.048   2.043  -7.367  0.00  0.00    +0.000 C 
ATOM      9  CD1 LEU A   1      58.090   2.691  -8.686  0.00  0.00    +0.000 C 
ENDBRANCH   6   7
ENDBRANCH   1   6
TORSDOF 4
REMARK  Name = ../refined-set-2016/2o4j/2o4j_pocket.pdb
REMARK  284 active torsions:
REMARK  status: ('A' for Active; 'I' for Inactive)
REMARK    1  A    between atoms: _1  and  _3
REMARK    2  A    between atoms: _3  and  _4
REMARK    3  A    between atoms: _3  and  _6
REMARK    4  A    between atoms: _6  and  _7
REMARK    5  A    between atoms: _10  and  _12
REMARK    6  A    between atoms: _12  and  _13
REMARK    7  A    between atoms: _12  and  _15
REMARK    8  A    between atoms: _15  and  _16
REMARK    9  A    between atoms: _21  and  _22
REMARK   10  A    between atoms: _24  and  _26
REMARK   11  A    between atoms: _26  and  _27
REMARK   12  A    between atoms: _26  and  _29
REMARK   13  A    between atoms: _29  and  _30
REMARK   14  A    between atoms: _34  and  _35
REMARK   15  A    between atoms: _40  and  _42
REMARK   16  A    between atoms: _42  and  _43
REMARK   17  A    between atoms: _42  and  _45
REMARK   18  A    between atoms: _45  and  _46
REMARK   19  A    between atoms: _51  and  _52
REMARK   20  A    between atoms: _54  and  _56
REMARK   21  A    between atoms: _56  and  _57
REMARK   22  A    between atoms: _56  and  _59
REMARK   23  A    between atoms: _59  and  _60
REMARK   24  A    between atoms: _66  and  _68
REMARK   25  A    between atoms: _68  and  _69
REMARK   26  A    between atoms: _68  and  _71
REMARK   27  A    between atoms: _71  and  _72
REMARK   28  A    between atoms: _78  and  _80
REMARK   29  A    between atoms: _80  and  _81
REMARK   30  A    between atoms: _80  and  _83
REMARK   31  A    between atoms: _83  and  _84
REMARK   32  A    between atoms: _84  and  _85
REMARK   33  A    between atoms: _85  and  _86
REMARK   34  A    between atoms: _95  and  _97
REMARK   35  A    between atoms: _97  and  _98
REMARK   36  A    between atoms: _97  and  _100
REMARK   37  A    between atoms: _100  and  _101
REMARK   38  A    between atoms: _101  and  _102
REMARK   39  A    between atoms: _104  and  _106
REMARK   40  A    between atoms: _106  and  _107
REMARK   41  A    between atoms: _106  and  _109
REMARK   42  A    between atoms: _109  and  _110
REMARK   43  A    between atoms: _114  and  _115
REMARK   44  A    between atoms: _120  and  _122
REMARK   45  A    between atoms: _122  and  _123
REMARK   46  A    between atoms: _122  and  _125
REMARK   47  A    between atoms: _125  and  _126
REMARK   48  A    between atoms: _131  and  _133
REMARK   49  A    between atoms: _133  and  _134
REMARK   50  A    between atoms: _133  and  _136
REMARK   51  A    between atoms: _136  and  _137
REMARK   52  A    between atoms: _140  and  _142
REMARK   53  A    between atoms: _142  and  _143
REMARK   54  A    between atoms: _146  and  _148
REMARK   55  A    between atoms: _148  and  _149
REMARK   56  A    between atoms: _148  and  _151
REMARK   57  A    between atoms: _151  and  _152
REMARK   58  A    between atoms: _155  and  _157
REMARK   59  A    between atoms: _157  and  _158
REMARK   60  A    between atoms: _157  and  _160
REMARK   61  A    between atoms: _160  and  _161
REMARK   62  A    between atoms: _164  and  _166
REMARK   63  A    between atoms: _166  and  _167
REMARK   64  A    between atoms: _166  and  _169
REMARK   65  A    between atoms: _172  and  _174
REMARK   66  A    between atoms: _174  and  _175
REMARK   67  A    between atoms: _174  and  _177
REMARK   68  A    between atoms: _177  and  _178
REMARK   69  A    between atoms: _180  and  _182
REMARK   70  A    between atoms: _182  and  _183
REMARK   71  A    between atoms: _182  and  _185
REMARK   72  A    between atoms: _185  and  _186
REMARK   73  A    between atoms: _191  and  _192
REMARK   74  A    between atoms: _194  and  _196
REMARK   75  A    between atoms: _196  and  _197
REMARK   76  A    between atoms: _196  and  _199
REMARK   77  A    between atoms: _199  and  _200
REMARK   78  A    between atoms: _202  and  _204
REMARK   79  A    between atoms: _204  and  _205
REMARK   80  A    between atoms: _204  and  _207
REMARK   81  A    between atoms: _207  and  _208
REMARK   82  A    between atoms: _211  and  _213
REMARK   83  A    between atoms: _213  and  _214
REMARK   84  A    between atoms: _213  and  _216
REMARK   85  A    between atoms: _216  and  _217
REMARK   86  A    between atoms: _217  and  _218
REMARK   87  A    between atoms: _218  and  _219
REMARK   88  A    between atoms: _219  and  _220
REMARK   89  A    between atoms: _224  and  _226
REMARK   90  A    between atoms: _226  and  _227
REMARK   91  A    between atoms: _226  and  _229
REMARK   92  A    between atoms: _232  and  _234
REMARK   93  A    between atoms: _234  and  _235
REMARK   94  A    between atoms: _238  and  _240
REMARK   95  A    between atoms: _240  and  _241
REMARK   96  A    between atoms: _240  and  _243
REMARK   97  A    between atoms: _243  and  _244
REMARK   98  A    between atoms: _247  and  _249
REMARK   99  A    between atoms: _249  and  _250
REMARK  100  A    between atoms: _249  and  _252
REMARK  101  A    between atoms: _252  and  _253
REMARK  102  A    between atoms: _253  and  _254
REMARK  103  A    between atoms: _257  and  _259
REMARK  104  A    between atoms: _259  and  _260
REMARK  105  A    between atoms: _259  and  _262
REMARK  106  A    between atoms: _265  and  _267
REMARK  107  A    between atoms: _267  and  _268
REMARK  108  A    between atoms: _267  and  _270
REMARK  109  A    between atoms: _270  and  _271
REMARK  110  A    between atoms: _274  and  _276
REMARK  111  A    between atoms: _276  and  _277
REMARK  112  A    between atoms: _276  and  _279
REMARK  113  A    between atoms: _279  and  _280
REMARK  114  A    between atoms: _280  and  _281
REMARK  115  A    between atoms: _283  and  _285
REMARK  116  A    between atoms: _285  and  _286
REMARK  117  A    between atoms: _285  and  _288
REMARK  118  A    between atoms: _288  and  _289
REMARK  119  A    between atoms: _292  and  _294
REMARK  120  A    between atoms: _294  and  _295
REMARK  121  A    between atoms: _294  and  _297
REMARK  122  A    between atoms: _297  and  _298
REMARK  123  A    between atoms: _298  and  _299
REMARK  124  A    between atoms: _299  and  _300
REMARK  125  A    between atoms: _309  and  _311
REMARK  126  A    between atoms: _311  and  _312
REMARK  127  A    between atoms: _311  and  _314
REMARK  128  A    between atoms: _314  and  _315
REMARK  129  A    between atoms: _317  and  _319
REMARK  130  A    between atoms: _319  and  _320
REMARK  131  A    between atoms: _319  and  _322
REMARK  132  A    between atoms: _322  and  _323
REMARK  133  A    between atoms: _328  and  _330
REMARK  134  A    between atoms: _330  and  _331
REMARK  135  A    between atoms: _330  and  _333
REMARK  136  A    between atoms: _333  and  _334
REMARK  137  A    between atoms: _334  and  _335
REMARK  138  A    between atoms: _340  and  _342
REMARK  139  A    between atoms: _342  and  _343
REMARK  140  A    between atoms: _342  and  _345
REMARK  141  A    between atoms: _345  and  _346
REMARK  142  A    between atoms: _348  and  _350
REMARK  143  A    between atoms: _350  and  _351
REMARK  144  A    between atoms: _350  and  _353
REMARK  145  A    between atoms: _353  and  _354
REMARK  146  A    between atoms: _360  and  _362
REMARK  147  A    between atoms: _362  and  _363
REMARK  148  A    between atoms: _362  and  _365
REMARK  149  A    between atoms: _365  and  _366
REMARK  150  A    between atoms: _368  and  _370
REMARK  151  A    between atoms: _370  and  _371
REMARK  152  A    between atoms: _370  and  _373
REMARK  153  A    between atoms: _373  and  _374
REMARK  154  A    between atoms: _384  and  _386
REMARK  155  A    between atoms: _386  and  _387
REMARK  156  A    between atoms: _386  and  _389
REMARK  157  A    between atoms: _389  and  _390
REMARK  158  A    between atoms: _393  and  _395
REMARK  159  A    between atoms: _395  and  _396
REMARK  160  A    between atoms: _395  and  _398
REMARK  161  A    between atoms: _400  and  _402
REMARK  162  A    between atoms: _402  and  _403
REMARK  163  A    between atoms: _402  and  _405
REMARK  164  A    between atoms: _405  and  _406
REMARK  165  A    between atoms: _411  and  _412
REMARK  166  A    between atoms: _414  and  _416
REMARK  167  A    between atoms: _416  and  _417
REMARK  168  A    between atoms: _416  and  _419
REMARK  169  A    between atoms: _419  and  _420
REMARK  170  A    between atoms: _420  and  _421
REMARK  171  A    between atoms: _421  and  _422
REMARK  172  A    between atoms: _422  and  _423
REMARK  173  A    between atoms: _427  and  _429
REMARK  174  A    between atoms: _429  and  _430
REMARK  175  A    between atoms: _429  and  _432
REMARK  176  A    between atoms: _432  and  _433
REMARK  177  A    between atoms: _438  and  _439
REMARK  178  A    between atoms: _441  and  _443
REMARK  179  A    between atoms: _443  and  _444
REMARK  180  A    between atoms: _443  and  _446
REMARK  181  A    between atoms: _446  and  _447
REMARK  182  A    between atoms: _450  and  _452
REMARK  183  A    between atoms: _452  and  _453
REMARK  184  A    between atoms: _452  and  _455
REMARK  185  A    between atoms: _455  and  _456
REMARK  186  A    between atoms: _459  and  _461
REMARK  187  A    between atoms: _461  and  _462
REMARK  188  A    between atoms: _461  and  _464
REMARK  189  A    between atoms: _467  and  _469
REMARK  190  A    between atoms: _469  and  _470
REMARK  191  A    between atoms: _469  and  _472
REMARK  192  A    between atoms: _472  and  _473
REMARK  193  A    between atoms: _475  and  _477
REMARK  194  A    between atoms: _477  and  _478
REMARK  195  A    between atoms: _481  and  _483
REMARK  196  A    between atoms: _483  and  _484
REMARK  197  A    between atoms: _486  and  _488
REMARK  198  A    between atoms: _488  and  _489
REMARK  199  A    between atoms: _488  and  _491
REMARK  200  A    between atoms: _491  and  _492
REMARK  201  A    between atoms: _497  and  _499
REMARK  202  A    between atoms: _499  and  _500
REMARK  203  A    between atoms: _499  and  _502
REMARK  204  A    between atoms: _502  and  _503
REMARK  205  A    between atoms: _506  and  _508
REMARK  206  A    between atoms: _508  and  _509
REMARK  207  A    between atoms: _508  and  _511
REMARK  208  A    between atoms: _511  and  _512
REMARK  209  A    between atoms: _515  and  _517
REMARK  210  A    between atoms: _517  and  _518
REMARK  211  A    between atoms: _517  and  _520
REMARK  212  A    between atoms: _520  and  _521
REMARK  213  A    between atoms: _524  and  _526
REMARK  214  A    between atoms: _526  and  _527
REMARK  215  A    between atoms: _526  and  _529
REMARK  216  A    between atoms: _529  and  _530
REMARK  217  A    between atoms: _530  and  _531
REMARK  218  A    between atoms: _536  and  _538
REMARK  219  A    between atoms: _538  and  _539
REMARK  220  A    between atoms: _538  and  _541
REMARK  221  A    between atoms: _541  and  _542
REMARK  222  A    between atoms: _545  and  _547
REMARK  223  A    between atoms: _547  and  _548
REMARK  224  A    between atoms: _547  and  _550
REMARK  225  A    between atoms: _550  and  _551
REMARK  226  A    between atoms: _551  and  _552
REMARK  227  A    between atoms: _555  and  _557
REMARK  228  A    between atoms: _557  and  _558
REMARK  229  A    between atoms: _557  and  _560
REMARK  230  A    between atoms: _560  and  _561
REMARK  231  A    between atoms: _566  and  _568
REMARK  232  A    between atoms: _568  and  _569
REMARK  233  A    between atoms: _568  and  _571
REMARK  234  A    between atoms: _571  and  _572
REMARK  235  A    between atoms: _574  and  _576
REMARK  236  A    between atoms: _576  and  _577
REMARK  237  A    between atoms: _576  and  _579
REMARK  238  A    between atoms: _579  and  _580
REMARK  239  A    between atoms: _580  and  _581
REMARK  240  A    between atoms: _586  and  _588
REMARK  241  A    between atoms: _588  and  _589
REMARK  242  A    between atoms: _588  and  _591
REMARK  243  A    between atoms: _591  and  _592
REMARK  244  A    between atoms: _597  and  _598
REMARK  245  A    between atoms: _600  and  _602
REMARK  246  A    between atoms: _602  and  _603
REMARK  247  A    between atoms: _602  and  _605
REMARK  248  A    between atoms: _605  and  _606
REMARK  249  A    between atoms: _606  and  _607
REMARK  250  A    between atoms: _607  and  _608
REMARK  251  A    between atoms: _617  and  _619
REMARK  252  A    between atoms: _619  and  _620
REMARK  253  A    between atoms: _619  and  _622
REMARK  254  A    between atoms: _622  and  _623
REMARK  255  A    between atoms: _626  and  _628
REMARK  256  A    between atoms: _628  and  _629
REMARK  257  A    between atoms: _628  and  _631
REMARK  258  A    between atoms: _631  and  _632
REMARK  259  A    between atoms: _634  and  _636
REMARK  260  A    between atoms: _636  and  _637
REMARK  261  A    between atoms: _636  and  _639
REMARK  262  A    between atoms: _639  and  _640
REMARK  263  A    between atoms: _645  and  _647
REMARK  264  A    between atoms: _647  and  _648
REMARK  265  A    between atoms: _647  and  _650
REMARK  266  A    between atoms: _650  and  _651
REMARK  267  A    between atoms: _651  and  _652
REMARK  268  A    between atoms: _652  and  _653
REMARK  269  A    between atoms: _653  and  _654
REMARK  270  A    between atoms: _658  and  _660
REMARK  271  A    between atoms: _660  and  _661
REMARK  272  A    between atoms: _660  and  _663
REMARK  273  A    between atoms: _663  and  _664
REMARK  274  A    between atoms: _667  and  _669
REMARK  275  A    between atoms: _669  and  _670
REMARK  276  A    between atoms: _669  and  _672
REMARK  277  A    between atoms: _672  and  _673
REMARK  278  A    between atoms: _676  and  _678
REMARK  279  A    between atoms: _678  and  _679
REMARK  280  A    between atoms: _678  and  _681
REMARK  281  A    between atoms: _684  and  _686
REMARK  282  A    between atoms: _686  and  _687
REMARK  283  A    between atoms: _686  and  _689
REMARK  284  A    between atoms: _689  and  _690
REMARK                            x       y       z     vdW  Elec       q    Type
REMARK                         _______ _______ _______ _____ _____    ______ ____
ROOT
ATOM      1  CB  GLN A   1      52.476   6.413  -6.646  0.00  0.00    +0.035 C 
ENDROOT
BRANCH   1   2
ATOM      2  CA  GLN A   1      51.151   5.691  -6.345  0.00  0.00    +0.134 C 
BRANCH   2   3
ATOM      3  N   GLN A   1      50.937   4.553  -7.249  0.00  0.00    -0.239 NA
ATOM      4  H   GLN A   1      51.607   4.402  -8.030  0.00  0.00    +0.142 HD
ENDBRANCH   2   3
BRANCH   2   5
ATOM      5  C   GLN A   1      49.975   6.662  -6.450  0.00  0.00    +0.224 C 
ATOM      6  O   GLN A   1      49.426   7.073  -5.462  0.00  0.00    -0.287 OA
ENDBRANCH   2   5
ENDBRANCH   1   2
BRANCH   1   7
ATOM      7  CG  GLN A   1      53.789   5.656  -6.274  0.00  0.00    +0.087 C 
BRANCH   7   8
ATOM      8  CD  GLN A   1      53.815   5.175  -4.819  0.00  0.00    +0.219 C 
ATOM      9  OE1 GLN A   1      53.342   5.858  -3.919  0.00  0.00    -0.275 OA
ATOM     10  NE2 GLN A   1      54.352   3.960  -4.596  0.00  0.00    -0.329 N 
ATOM     11 HE21 GLN A   1      54.375   3.571  -3.632  0.00  0.00    +0.145 HD
ATOM     12 HE22 GLN A   1      54.744   3.411  -5.388  0.00  0.00    +0.145 HD
ENDBRANCH   7   8
ENDBRANCH   1   7
TORSDOF 5
REMARK  Name = ../refined-set-2016/2o4j/2o4j_pocket.pdb
REMARK  284 active torsions:
REMARK  status: ('A' for Active; 'I' for Inactive)
REMARK    1  A    between atoms: _1  and  _3
REMARK    2  A    between atoms: _3  and  _4
REMARK    3  A    between atoms: _3  and  _6
REMARK    4  A    between atoms: _6  and  _7
REMARK    5  A    between atoms: _10  and  _12
REMARK    6  A    between atoms: _12  and  _13
REMARK    7  A    between atoms: _12  and  _15
REMARK    8  A    between atoms: _15  and  _16
REMARK    9  A    between atoms: _21  and  _22
REMARK   10  A    between atoms: _24  and  _26
REMARK   11  A    between atoms: _26  and  _27
REMARK   12  A    between atoms: _26  and  _29
REMARK   13  A    between atoms: _29  and  _30
REMARK   14  A    between atoms: _34  and  _35
REMARK   15  A    between atoms: _40  and  _42
REMARK   16  A    between atoms: _42  and  _43
REMARK   17  A    between atoms: _42  and  _45
REMARK   18  A    between atoms: _45  and  _46
REMARK   19  A    between atoms: _51  and  _52
REMARK   20  A    between atoms: _54  and  _56
REMARK   21  A    between atoms: _56  and  _57
REMARK   22  A    between atoms: _56  and  _59
REMARK   23  A    between atoms: _59  and  _60
REMARK   24  A    between atoms: _66  and  _68
REMARK   25  A    between atoms: _68  and  _69
REMARK   26  A    between atoms: _68  and  _71
REMARK   27  A    between atoms: _71  and  _72
REMARK   28  A    between atoms: _78  and  _80
REMARK   29  A    between atoms: _80  and  _81
REMARK   30  A    between atoms: _80  and  _83
REMARK   31  A    between atoms: _83  and  _84
REMARK   32  A    between atoms: _84  and  _85
REMARK   33  A    between atoms: _85  and  _86
REMARK   34  A    between atoms: _95  and  _97
REMARK   35  A    between atoms: _97  and  _98
REMARK   36  A    between atoms: _97  and  _100
REMARK   37  A    between atoms: _100  and  _101
REMARK   38  A    between atoms: _101  and  _102
REMARK   39  A    between atoms: _104  and  _106
REMARK   40  A    between atoms: _106  and  _107
REMARK   41  A    between atoms: _106  and  _109
REMARK   42  A    between atoms: _109  and  _110
REMARK   43  A    between atoms: _114  and  _115
REMARK   44  A    between atoms: _120  and  _122
REMARK   45  A    between atoms: _122  and  _123
REMARK   46  A    between atoms: _122  and  _125
REMARK   47  A    between atoms: _125  and  _126
REMARK   48  A    between atoms: _131  and  _133
REMARK   49  A    between atoms: _133  and  _134
REMARK   50  A    between atoms: _133  and  _136
REMARK   51  A    between atoms: _136  and  _137
REMARK   52  A    between atoms: _140  and  _142
REMARK   53  A    between atoms: _142  and  _143
REMARK   54  A    between atoms: _146  and  _148
REMARK   55  A    between atoms: _148  and  _149
REMARK   56  A    between atoms: _148  and  _151
REMARK   57  A    between atoms: _151  and  _152
REMARK   58  A    between atoms: _155  and  _157
REMARK   59  A    between atoms: _157  and  _158
REMARK   60  A    between atoms: _157  and  _160
REMARK   61  A    between atoms: _160  and  _161
REMARK   62  A    between atoms: _164  and  _166
REMARK   63  A    between atoms: _166  and  _167
REMARK   64  A    between atoms: _166  and  _169
REMARK   65  A    between atoms: _172  and  _174
REMARK   66  A    between atoms: _174  and  _175
REMARK   67  A    between atoms: _174  and  _177
REMARK   68  A    between atoms: _177  and  _178
REMARK   69  A    between atoms: _180  and  _182
REMARK   70  A    between atoms: _182  and  _183
REMARK   71  A    between atoms: _182  and  _185
REMARK   72  A    between atoms: _185  and  _186
REMARK   73  A    between atoms: _191  and  _192
REMARK   74  A    between atoms: _194  and  _196
REMARK   75  A    between atoms: _196  and  _197
REMARK   76  A    between atoms: _196  and  _199
REMARK   77  A    between atoms: _199  and  _200
REMARK   78  A    between atoms: _202  and  _204
REMARK   79  A    between atoms: _204  and  _205
REMARK   80  A    between atoms: _204  and  _207
REMARK   81  A    between atoms: _207  and  _208
REMARK   82  A    between atoms: _211  and  _213
REMARK   83  A    between atoms: _213  and  _214
REMARK   84  A    between atoms: _213  and  _216
REMARK   85  A    between atoms: _216  and  _217
REMARK   86  A    between atoms: _217  and  _218
REMARK   87  A    between atoms: _218  and  _219
REMARK   88  A    between atoms: _219  and  _220
REMARK   89  A    between atoms: _224  and  _226
REMARK   90  A    between atoms: _226  and  _227
REMARK   91  A    between atoms: _226  and  _229
REMARK   92  A    between atoms: _232  and  _234
REMARK   93  A    between atoms: _234  and  _235
REMARK   94  A    between atoms: _238  and  _240
REMARK   95  A    between atoms: _240  and  _241
REMARK   96  A    between atoms: _240  and  _243
REMARK   97  A    between atoms: _243  and  _244
REMARK   98  A    between atoms: _247  and  _249
REMARK   99  A    between atoms: _249  and  _250
REMARK  100  A    between atoms: _249  and  _252
REMARK  101  A    between atoms: _252  and  _253
REMARK  102  A    between atoms: _253  and  _254
REMARK  103  A    between atoms: _257  and  _259
REMARK  104  A    between atoms: _259  and  _260
REMARK  105  A    between atoms: _259  and  _262
REMARK  106  A    between atoms: _265  and  _267
REMARK  107  A    between atoms: _267  and  _268
REMARK  108  A    between atoms: _267  and  _270
REMARK  109  A    between atoms: _270  and  _271
REMARK  110  A    between atoms: _274  and  _276
REMARK  111  A    between atoms: _276  and  _277
REMARK  112  A    between atoms: _276  and  _279
REMARK  113  A    between atoms: _279  and  _280
REMARK  114  A    between atoms: _280  and  _281
REMARK  115  A    between atoms: _283  and  _285
REMARK  116  A    between atoms: _285  and  _286
REMARK  117  A    between atoms: _285  and  _288
REMARK  118  A    between atoms: _288  and  _289
REMARK  119  A    between atoms: _292  and  _294
REMARK  120  A    between atoms: _294  and  _295
REMARK  121  A    between atoms: _294  and  _297
REMARK  122  A    between atoms: _297  and  _298
REMARK  123  A    between atoms: _298  and  _299
REMARK  124  A    between atoms: _299  and  _300
REMARK  125  A    between atoms: _309  and  _311
REMARK  126  A    between atoms: _311  and  _312
REMARK  127  A    between atoms: _311  and  _314
REMARK  128  A    between atoms: _314  and  _315
REMARK  129  A    between atoms: _317  and  _319
REMARK  130  A    between atoms: _319  and  _320
REMARK  131  A    between atoms: _319  and  _322
REMARK  132  A    between atoms: _322  and  _323
REMARK  133  A    between atoms: _328  and  _330
REMARK  134  A    between atoms: _330  and  _331
REMARK  135  A    between atoms: _330  and  _333
REMARK  136  A    between atoms: _333  and  _334
REMARK  137  A    between atoms: _334  and  _335
REMARK  138  A    between atoms: _340  and  _342
REMARK  139  A    between atoms: _342  and  _343
REMARK  140  A    between atoms: _342  and  _345
REMARK  141  A    between atoms: _345  and  _346
REMARK  142  A    between atoms: _348  and  _350
REMARK  143  A    between atoms: _350  and  _351
REMARK  144  A    between atoms: _350  and  _353
REMARK  145  A    between atoms: _353  and  _354
REMARK  146  A    between atoms: _360  and  _362
REMARK  147  A    between atoms: _362  and  _363
REMARK  148  A    between atoms: _362  and  _365
REMARK  149  A    between atoms: _365  and  _366
REMARK  150  A    between atoms: _368  and  _370
REMARK  151  A    between atoms: _370  and  _371
REMARK  152  A    between atoms: _370  and  _373
REMARK  153  A    between atoms: _373  and  _374
REMARK  154  A    between atoms: _384  and  _386
REMARK  155  A    between atoms: _386  and  _387
REMARK  156  A    between atoms: _386  and  _389
REMARK  157  A    between atoms: _389  and  _390
REMARK  158  A    between atoms: _393  and  _395
REMARK  159  A    between atoms: _395  and  _396
REMARK  160  A    between atoms: _395  and  _398
REMARK  161  A    between atoms: _400  and  _402
REMARK  162  A    between atoms: _402  and  _403
REMARK  163  A    between atoms: _402  and  _405
REMARK  164  A    between atoms: _405  and  _406
REMARK  165  A    between atoms: _411  and  _412
REMARK  166  A    between atoms: _414  and  _416
REMARK  167  A    between atoms: _416  and  _417
REMARK  168  A    between atoms: _416  and  _419
REMARK  169  A    between atoms: _419  and  _420
REMARK  170  A    between atoms: _420  and  _421
REMARK  171  A    between atoms: _421  and  _422
REMARK  172  A    between atoms: _422  and  _423
REMARK  173  A    between atoms: _427  and  _429
REMARK  174  A    between atoms: _429  and  _430
REMARK  175  A    between atoms: _429  and  _432
REMARK  176  A    between atoms: _432  and  _433
REMARK  177  A    between atoms: _438  and  _439
REMARK  178  A    between atoms: _441  and  _443
REMARK  179  A    between atoms: _443  and  _444
REMARK  180  A    between atoms: _443  and  _446
REMARK  181  A    between atoms: _446  and  _447
REMARK  182  A    between atoms: _450  and  _452
REMARK  183  A    between atoms: _452  and  _453
REMARK  184  A    between atoms: _452  and  _455
REMARK  185  A    between atoms: _455  and  _456
REMARK  186  A    between atoms: _459  and  _461
REMARK  187  A    between atoms: _461  and  _462
REMARK  188  A    between atoms: _461  and  _464
REMARK  189  A    between atoms: _467  and  _469
REMARK  190  A    between atoms: _469  and  _470
REMARK  191  A    between atoms: _469  and  _472
REMARK  192  A    between atoms: _472  and  _473
REMARK  193  A    between atoms: _475  and  _477
REMARK  194  A    between atoms: _477  and  _478
REMARK  195  A    between atoms: _481  and  _483
REMARK  196  A    between atoms: _483  and  _484
REMARK  197  A    between atoms: _486  and  _488
REMARK  198  A    between atoms: _488  and  _489
REMARK  199  A    between atoms: _488  and  _491
REMARK  200  A    between atoms: _491  and  _492
REMARK  201  A    between atoms: _497  and  _499
REMARK  202  A    between atoms: _499  and  _500
REMARK  203  A    between atoms: _499  and  _502
REMARK  204  A    between atoms: _502  and  _503
REMARK  205  A    between atoms: _506  and  _508
REMARK  206  A    between atoms: _508  and  _509
REMARK  207  A    between atoms: _508  and  _511
REMARK  208  A    between atoms: _511  and  _512
REMARK  209  A    between atoms: _515  and  _517
REMARK  210  A    between atoms: _517  and  _518
REMARK  211  A    between atoms: _517  and  _520
REMARK  212  A    between atoms: _520  and  _521
REMARK  213  A    between atoms: _524  and  _526
REMARK  214  A    between atoms: _526  and  _527
REMARK  215  A    between atoms: _526  and  _529
REMARK  216  A    between atoms: _529  and  _530
REMARK  217  A    between atoms: _530  and  _531
REMARK  218  A    between atoms: _536  and  _538
REMARK  219  A    between atoms: _538  and  _539
REMARK  220  A    between atoms: _538  and  _541
REMARK  221  A    between atoms: _541  and  _542
REMARK  222  A    between atoms: _545  and  _547
REMARK  223  A    between atoms: _547  and  _548
REMARK  224  A    between atoms: _547  and  _550
REMARK  225  A    between atoms: _550  and  _551
REMARK  226  A    between atoms: _551  and  _552
REMARK  227  A    between atoms: _555  and  _557
REMARK  228  A    between atoms: _557  and  _558
REMARK  229  A    between atoms: _557  and  _560
REMARK  230  A    between atoms: _560  and  _561
REMARK  231  A    between atoms: _566  and  _568
REMARK  232  A    between atoms: _568  and  _569
REMARK  233  A    between atoms: _568  and  _571
REMARK  234  A    between atoms: _571  and  _572
REMARK  235  A    between atoms: _574  and  _576
REMARK  236  A    between atoms: _576  and  _577
REMARK  237  A    between atoms: _576  and  _579
REMARK  238  A    between atoms: _579  and  _580
REMARK  239  A    between atoms: _580  and  _581
REMARK  240  A    between atoms: _586  and  _588
REMARK  241  A    between atoms: _588  and  _589
REMARK  242  A    between atoms: _588  and  _591
REMARK  243  A    between atoms: _591  and  _592
REMARK  244  A    between atoms: _597  and  _598
REMARK  245  A    between atoms: _600  and  _602
REMARK  246  A    between atoms: _602  and  _603
REMARK  247  A    between atoms: _602  and  _605
REMARK  248  A    between atoms: _605  and  _606
REMARK  249  A    between atoms: _606  and  _607
REMARK  250  A    between atoms: _607  and  _608
REMARK  251  A    between atoms: _617  and  _619
REMARK  252  A    between atoms: _619  and  _620
REMARK  253  A    between atoms: _619  and  _622
REMARK  254  A    between atoms: _622  and  _623
REMARK  255  A    between atoms: _626  and  _628
REMARK  256  A    between atoms: _628  and  _629
REMARK  257  A    between atoms: _628  and  _631
REMARK  258  A    between atoms: _631  and  _632
REMARK  259  A    between atoms: _634  and  _636
REMARK  260  A    between atoms: _636  and  _637
REMARK  261  A    between atoms: _636  and  _639
REMARK  262  A    between atoms: _639  and  _640
REMARK  263  A    between atoms: _645  and  _647
REMARK  264  A    between atoms: _647  and  _648
REMARK  265  A    between atoms: _647  and  _650
REMARK  266  A    between atoms: _650  and  _651
REMARK  267  A    between atoms: _651  and  _652
REMARK  268  A    between atoms: _652  and  _653
REMARK  269  A    between atoms: _653  and  _654
REMARK  270  A    between atoms: _658  and  _660
REMARK  271  A    between atoms: _660  and  _661
REMARK  272  A    between atoms: _660  and  _663
REMARK  273  A    between atoms: _663  and  _664
REMARK  274  A    between atoms: _667  and  _669
REMARK  275  A    between atoms: _669  and  _670
REMARK  276  A    between atoms: _669  and  _672
REMARK  277  A    between atoms: _672  and  _673
REMARK  278  A    between atoms: _676  and  _678
REMARK  279  A    between atoms: _678  and  _679
REMARK  280  A    between atoms: _678  and  _681
REMARK  281  A    between atoms: _684  and  _686
REMARK  282  A    between atoms: _686  and  _687
REMARK  283  A    between atoms: _686  and  _689
REMARK  284  A    between atoms: _689  and  _690
REMARK                            x       y       z     vdW  Elec       q    Type
REMARK                         _______ _______ _______ _____ _____    ______ ____
ROOT
ATOM      1  CA  LEU A   1      54.937  -4.810  -8.697  0.00  0.00    +0.133 C 
ENDROOT
BRANCH   1   2
ATOM      2  N   LEU A   1      53.772  -5.658  -8.776  0.00  0.00    -0.239 NA
ATOM      3  H   LEU A   1      52.913  -5.398  -8.250  0.00  0.00    +0.142 HD
ENDBRANCH   1   2
BRANCH   1   4
ATOM      4  C   LEU A   1      56.160  -5.519  -8.084  0.00  0.00    +0.224 C 
ATOM      5  O   LEU A   1      57.275  -5.364  -8.563  0.00  0.00    -0.287 OA
ENDBRANCH   1   4
BRANCH   1   6
ATOM      6  CB  LEU A   1      54.628  -3.490  -7.948  0.00  0.00    +0.025 C 
BRANCH   6   7
ATOM      7  CG  LEU A   1      53.656  -2.528  -8.633  0.00  0.00    +0.002 C 
ATOM      8  CD2 LEU A   1      53.140  -1.476  -7.627  0.00  0.00    +0.000 C 
ATOM      9  CD1 LEU A   1      54.344  -1.831  -9.837  0.00  0.00    +0.000 C 
ENDBRANCH   6   7
ENDBRANCH   1   6
TORSDOF 4
REMARK  Name = ../refined-set-2016/2o4j/2o4j_pocket.pdb
REMARK  284 active torsions:
REMARK  status: ('A' for Active; 'I' for Inactive)
REMARK    1  A    between atoms: _1  and  _3
REMARK    2  A    between atoms: _3  and  _4
REMARK    3  A    between atoms: _3  and  _6
REMARK    4  A    between atoms: _6  and  _7
REMARK    5  A    between atoms: _10  and  _12
REMARK    6  A    between atoms: _12  and  _13
REMARK    7  A    between atoms: _12  and  _15
REMARK    8  A    between atoms: _15  and  _16
REMARK    9  A    between atoms: _21  and  _22
REMARK   10  A    between atoms: _24  and  _26
REMARK   11  A    between atoms: _26  and  _27
REMARK   12  A    between atoms: _26  and  _29
REMARK   13  A    between atoms: _29  and  _30
REMARK   14  A    between atoms: _34  and  _35
REMARK   15  A    between atoms: _40  and  _42
REMARK   16  A    between atoms: _42  and  _43
REMARK   17  A    between atoms: _42  and  _45
REMARK   18  A    between atoms: _45  and  _46
REMARK   19  A    between atoms: _51  and  _52
REMARK   20  A    between atoms: _54  and  _56
REMARK   21  A    between atoms: _56  and  _57
REMARK   22  A    between atoms: _56  and  _59
REMARK   23  A    between atoms: _59  and  _60
REMARK   24  A    between atoms: _66  and  _68
REMARK   25  A    between atoms: _68  and  _69
REMARK   26  A    between atoms: _68  and  _71
REMARK   27  A    between atoms: _71  and  _72
REMARK   28  A    between atoms: _78  and  _80
REMARK   29  A    between atoms: _80  and  _81
REMARK   30  A    between atoms: _80  and  _83
REMARK   31  A    between atoms: _83  and  _84
REMARK   32  A    between atoms: _84  and  _85
REMARK   33  A    between atoms: _85  and  _86
REMARK   34  A    between atoms: _95  and  _97
REMARK   35  A    between atoms: _97  and  _98
REMARK   36  A    between atoms: _97  and  _100
REMARK   37  A    between atoms: _100  and  _101
REMARK   38  A    between atoms: _101  and  _102
REMARK   39  A    between atoms: _104  and  _106
REMARK   40  A    between atoms: _106  and  _107
REMARK   41  A    between atoms: _106  and  _109
REMARK   42  A    between atoms: _109  and  _110
REMARK   43  A    between atoms: _114  and  _115
REMARK   44  A    between atoms: _120  and  _122
REMARK   45  A    between atoms: _122  and  _123
REMARK   46  A    between atoms: _122  and  _125
REMARK   47  A    between atoms: _125  and  _126
REMARK   48  A    between atoms: _131  and  _133
REMARK   49  A    between atoms: _133  and  _134
REMARK   50  A    between atoms: _133  and  _136
REMARK   51  A    between atoms: _136  and  _137
REMARK   52  A    between atoms: _140  and  _142
REMARK   53  A    between atoms: _142  and  _143
REMARK   54  A    between atoms: _146  and  _148
REMARK   55  A    between atoms: _148  and  _149
REMARK   56  A    between atoms: _148  and  _151
REMARK   57  A    between atoms: _151  and  _152
REMARK   58  A    between atoms: _155  and  _157
REMARK   59  A    between atoms: _157  and  _158
REMARK   60  A    between atoms: _157  and  _160
REMARK   61  A    between atoms: _160  and  _161
REMARK   62  A    between atoms: _164  and  _166
REMARK   63  A    between atoms: _166  and  _167
REMARK   64  A    between atoms: _166  and  _169
REMARK   65  A    between atoms: _172  and  _174
REMARK   66  A    between atoms: _174  and  _175
REMARK   67  A    between atoms: _174  and  _177
REMARK   68  A    between atoms: _177  and  _178
REMARK   69  A    between atoms: _180  and  _182
REMARK   70  A    between atoms: _182  and  _183
REMARK   71  A    between atoms: _182  and  _185
REMARK   72  A    between atoms: _185  and  _186
REMARK   73  A    between atoms: _191  and  _192
REMARK   74  A    between atoms: _194  and  _196
REMARK   75  A    between atoms: _196  and  _197
REMARK   76  A    between atoms: _196  and  _199
REMARK   77  A    between atoms: _199  and  _200
REMARK   78  A    between atoms: _202  and  _204
REMARK   79  A    between atoms: _204  and  _205
REMARK   80  A    between atoms: _204  and  _207
REMARK   81  A    between atoms: _207  and  _208
REMARK   82  A    between atoms: _211  and  _213
REMARK   83  A    between atoms: _213  and  _214
REMARK   84  A    between atoms: _213  and  _216
REMARK   85  A    between atoms: _216  and  _217
REMARK   86  A    between atoms: _217  and  _218
REMARK   87  A    between atoms: _218  and  _219
REMARK   88  A    between atoms: _219  and  _220
REMARK   89  A    between atoms: _224  and  _226
REMARK   90  A    between atoms: _226  and  _227
REMARK   91  A    between atoms: _226  and  _229
REMARK   92  A    between atoms: _232  and  _234
REMARK   93  A    between atoms: _234  and  _235
REMARK   94  A    between atoms: _238  and  _240
REMARK   95  A    between atoms: _240  and  _241
REMARK   96  A    between atoms: _240  and  _243
REMARK   97  A    between atoms: _243  and  _244
REMARK   98  A    between atoms: _247  and  _249
REMARK   99  A    between atoms: _249  and  _250
REMARK  100  A    between atoms: _249  and  _252
REMARK  101  A    between atoms: _252  and  _253
REMARK  102  A    between atoms: _253  and  _254
REMARK  103  A    between atoms: _257  and  _259
REMARK  104  A    between atoms: _259  and  _260
REMARK  105  A    between atoms: _259  and  _262
REMARK  106  A    between atoms: _265  and  _267
REMARK  107  A    between atoms: _267  and  _268
REMARK  108  A    between atoms: _267  and  _270
REMARK  109  A    between atoms: _270  and  _271
REMARK  110  A    between atoms: _274  and  _276
REMARK  111  A    between atoms: _276  and  _277
REMARK  112  A    between atoms: _276  and  _279
REMARK  113  A    between atoms: _279  and  _280
REMARK  114  A    between atoms: _280  and  _281
REMARK  115  A    between atoms: _283  and  _285
REMARK  116  A    between atoms: _285  and  _286
REMARK  117  A    between atoms: _285  and  _288
REMARK  118  A    between atoms: _288  and  _289
REMARK  119  A    between atoms: _292  and  _294
REMARK  120  A    between atoms: _294  and  _295
REMARK  121  A    between atoms: _294  and  _297
REMARK  122  A    between atoms: _297  and  _298
REMARK  123  A    between atoms: _298  and  _299
REMARK  124  A    between atoms: _299  and  _300
REMARK  125  A    between atoms: _309  and  _311
REMARK  126  A    between atoms: _311  and  _312
REMARK  127  A    between atoms: _311  and  _314
REMARK  128  A    between atoms: _314  and  _315
REMARK  129  A    between atoms: _317  and  _319
REMARK  130  A    between atoms: _319  and  _320
REMARK  131  A    between atoms: _319  and  _322
REMARK  132  A    between atoms: _322  and  _323
REMARK  133  A    between atoms: _328  and  _330
REMARK  134  A    between atoms: _330  and  _331
REMARK  135  A    between atoms: _330  and  _333
REMARK  136  A    between atoms: _333  and  _334
REMARK  137  A    between atoms: _334  and  _335
REMARK  138  A    between atoms: _340  and  _342
REMARK  139  A    between atoms: _342  and  _343
REMARK  140  A    between atoms: _342  and  _345
REMARK  141  A    between atoms: _345  and  _346
REMARK  142  A    between atoms: _348  and  _350
REMARK  143  A    between atoms: _350  and  _351
REMARK  144  A    between atoms: _350  and  _353
REMARK  145  A    between atoms: _353  and  _354
REMARK  146  A    between atoms: _360  and  _362
REMARK  147  A    between atoms: _362  and  _363
REMARK  148  A    between atoms: _362  and  _365
REMARK  149  A    between atoms: _365  and  _366
REMARK  150  A    between atoms: _368  and  _370
REMARK  151  A    between atoms: _370  and  _371
REMARK  152  A    between atoms: _370  and  _373
REMARK  153  A    between atoms: _373  and  _374
REMARK  154  A    between atoms: _384  and  _386
REMARK  155  A    between atoms: _386  and  _387
REMARK  156  A    between atoms: _386  and  _389
REMARK  157  A    between atoms: _389  and  _390
REMARK  158  A    between atoms: _393  and  _395
REMARK  159  A    between atoms: _395  and  _396
REMARK  160  A    between atoms: _395  and  _398
REMARK  161  A    between atoms: _400  and  _402
REMARK  162  A    between atoms: _402  and  _403
REMARK  163  A    between atoms: _402  and  _405
REMARK  164  A    between atoms: _405  and  _406
REMARK  165  A    between atoms: _411  and  _412
REMARK  166  A    between atoms: _414  and  _416
REMARK  167  A    between atoms: _416  and  _417
REMARK  168  A    between atoms: _416  and  _419
REMARK  169  A    between atoms: _419  and  _420
REMARK  170  A    between atoms: _420  and  _421
REMARK  171  A    between atoms: _421  and  _422
REMARK  172  A    between atoms: _422  and  _423
REMARK  173  A    between atoms: _427  and  _429
REMARK  174  A    between atoms: _429  and  _430
REMARK  175  A    between atoms: _429  and  _432
REMARK  176  A    between atoms: _432  and  _433
REMARK  177  A    between atoms: _438  and  _439
REMARK  178  A    between atoms: _441  and  _443
REMARK  179  A    between atoms: _443  and  _444
REMARK  180  A    between atoms: _443  and  _446
REMARK  181  A    between atoms: _446  and  _447
REMARK  182  A    between atoms: _450  and  _452
REMARK  183  A    between atoms: _452  and  _453
REMARK  184  A    between atoms: _452  and  _455
REMARK  185  A    between atoms: _455  and  _456
REMARK  186  A    between atoms: _459  and  _461
REMARK  187  A    between atoms: _461  and  _462
REMARK  188  A    between atoms: _461  and  _464
REMARK  189  A    between atoms: _467  and  _469
REMARK  190  A    between atoms: _469  and  _470
REMARK  191  A    between atoms: _469  and  _472
REMARK  192  A    between atoms: _472  and  _473
REMARK  193  A    between atoms: _475  and  _477
REMARK  194  A    between atoms: _477  and  _478
REMARK  195  A    between atoms: _481  and  _483
REMARK  196  A    between atoms: _483  and  _484
REMARK  197  A    between atoms: _486  and  _488
REMARK  198  A    between atoms: _488  and  _489
REMARK  199  A    between atoms: _488  and  _491
REMARK  200  A    between atoms: _491  and  _492
REMARK  201  A    between atoms: _497  and  _499
REMARK  202  A    between atoms: _499  and  _500
REMARK  203  A    between atoms: _499  and  _502
REMARK  204  A    between atoms: _502  and  _503
REMARK  205  A    between atoms: _506  and  _508
REMARK  206  A    between atoms: _508  and  _509
REMARK  207  A    between atoms: _508  and  _511
REMARK  208  A    between atoms: _511  and  _512
REMARK  209  A    between atoms: _515  and  _517
REMARK  210  A    between atoms: _517  and  _518
REMARK  211  A    between atoms: _517  and  _520
REMARK  212  A    between atoms: _520  and  _521
REMARK  213  A    between atoms: _524  and  _526
REMARK  214  A    between atoms: _526  and  _527
REMARK  215  A    between atoms: _526  and  _529
REMARK  216  A    between atoms: _529  and  _530
REMARK  217  A    between atoms: _530  and  _531
REMARK  218  A    between atoms: _536  and  _538
REMARK  219  A    between atoms: _538  and  _539
REMARK  220  A    between atoms: _538  and  _541
REMARK  221  A    between atoms: _541  and  _542
REMARK  222  A    between atoms: _545  and  _547
REMARK  223  A    between atoms: _547  and  _548
REMARK  224  A    between atoms: _547  and  _550
REMARK  225  A    between atoms: _550  and  _551
REMARK  226  A    between atoms: _551  and  _552
REMARK  227  A    between atoms: _555  and  _557
REMARK  228  A    between atoms: _557  and  _558
REMARK  229  A    between atoms: _557  and  _560
REMARK  230  A    between atoms: _560  and  _561
REMARK  231  A    between atoms: _566  and  _568
REMARK  232  A    between atoms: _568  and  _569
REMARK  233  A    between atoms: _568  and  _571
REMARK  234  A    between atoms: _571  and  _572
REMARK  235  A    between atoms: _574  and  _576
REMARK  236  A    between atoms: _576  and  _577
REMARK  237  A    between atoms: _576  and  _579
REMARK  238  A    between atoms: _579  and  _580
REMARK  239  A    between atoms: _580  and  _581
REMARK  240  A    between atoms: _586  and  _588
REMARK  241  A    between atoms: _588  and  _589
REMARK  242  A    between atoms: _588  and  _591
REMARK  243  A    between atoms: _591  and  _592
REMARK  244  A    between atoms: _597  and  _598
REMARK  245  A    between atoms: _600  and  _602
REMARK  246  A    between atoms: _602  and  _603
REMARK  247  A    between atoms: _602  and  _605
REMARK  248  A    between atoms: _605  and  _606
REMARK  249  A    between atoms: _606  and  _607
REMARK  250  A    between atoms: _607  and  _608
REMARK  251  A    between atoms: _617  and  _619
REMARK  252  A    between atoms: _619  and  _620
REMARK  253  A    between atoms: _619  and  _622
REMARK  254  A    between atoms: _622  and  _623
REMARK  255  A    between atoms: _626  and  _628
REMARK  256  A    between atoms: _628  and  _629
REMARK  257  A    between atoms: _628  and  _631
REMARK  258  A    between atoms: _631  and  _632
REMARK  259  A    between atoms: _634  and  _636
REMARK  260  A    between atoms: _636  and  _637
REMARK  261  A    between atoms: _636  and  _639
REMARK  262  A    between atoms: _639  and  _640
REMARK  263  A    between atoms: _645  and  _647
REMARK  264  A    between atoms: _647  and  _648
REMARK  265  A    between atoms: _647  and  _650
REMARK  266  A    between atoms: _650  and  _651
REMARK  267  A    between atoms: _651  and  _652
REMARK  268  A    between atoms: _652  and  _653
REMARK  269  A    between atoms: _653  and  _654
REMARK  270  A    between atoms: _658  and  _660
REMARK  271  A    between atoms: _660  and  _661
REMARK  272  A    between atoms: _660  and  _663
REMARK  273  A    between atoms: _663  and  _664
REMARK  274  A    between atoms: _667  and  _669
REMARK  275  A    between atoms: _669  and  _670
REMARK  276  A    between atoms: _669  and  _672
REMARK  277  A    between atoms: _672  and  _673
REMARK  278  A    between atoms: _676  and  _678
REMARK  279  A    between atoms: _678  and  _679
REMARK  280  A    between atoms: _678  and  _681
REMARK  281  A    between atoms: _684  and  _686
REMARK  282  A    between atoms: _686  and  _687
REMARK  283  A    between atoms: _686  and  _689
REMARK  284  A    between atoms: _689  and  _690
REMARK                            x       y       z     vdW  Elec       q    Type
REMARK                         _______ _______ _______ _____ _____    ______ ____
ROOT
ATOM      1  CA  HIS A   2      60.793  -5.562  -9.495  0.00  0.00    +0.155 C 
ENDROOT
BRANCH   1   3
ATOM      2  C   GLU A   1      59.635  -6.570 -11.331  0.00  0.00    +0.238 C 
ATOM      3  N   HIS A   2      59.563  -6.014 -10.130  0.00  0.00    -0.297 N 
ATOM      4  H   HIS A   2      58.647  -5.903  -9.651  0.00  0.00    +0.150 HD
ATOM      5  O   GLU A   1      60.680  -6.558 -12.004  0.00  0.00    -0.274 OA
BRANCH   2   6
ATOM      6  CA  GLU A   1      58.348  -7.220 -11.862  0.00  0.00    +0.145 C 
BRANCH   6   7
ATOM      7  N   GLU A   1      57.627  -7.944 -10.830  0.00  0.00    -0.238 NA
ATOM      8  H   GLU A   1      56.726  -7.553 -10.488  0.00  0.00    +0.142 HD
ENDBRANCH   6   7
BRANCH   6   9
ATOM      9  CB  GLU A   1      57.453  -6.158 -12.506  0.00  0.00    +0.038 C 
BRANCH   9  10
ATOM     10  CG  GLU A   1      58.058  -5.444 -13.744  0.00  0.00    +0.116 C 
BRANCH  10  11
ATOM     11  CD  GLU A   1      58.401  -6.402 -14.895  0.00  0.00    +0.365 C 
ATOM     12  OE2 GLU A   1      57.676  -7.397 -15.111  0.00  0.00    -0.246 OA
ATOM     13  OE1 GLU A   1      59.417  -6.162 -15.552  0.00  0.00    -0.246 OA
ENDBRANCH  10  11
ENDBRANCH   9  10
ENDBRANCH   6   9
ENDBRANCH   2   6
ENDBRANCH   1   3
BRANCH   1  14
ATOM     14  C   HIS A   2      61.803  -6.692  -9.326  0.00  0.00    +0.241 C 
ATOM     15  N   SER A   3      61.352  -7.827  -8.806  0.00  0.00    -0.296 N 
ATOM     16  H   SER A   3      60.354  -7.898  -8.522  0.00  0.00    +0.150 HD
ATOM     17  O   HIS A   2      62.975  -6.528  -9.627  0.00  0.00    -0.273 OA
BRANCH  15  18
ATOM     18  CA  SER A   3      62.230  -8.974  -8.626  0.00  0.00    +0.166 C 
BRANCH  18  19
ATOM     19  C   SER A   3      62.918  -9.373  -9.951  0.00  0.00    +0.229 C 
ATOM     20  O   SER A   3      64.127  -9.619  -9.979  0.00  0.00    -0.286 OA
ENDBRANCH  18  19
BRANCH  18  21
ATOM     21  CB  SER A   3      61.415 -10.131  -8.049  0.00  0.00    +0.165 C 
BRANCH  21  22
ATOM     22  OG  SER A   3      62.248 -11.216  -7.729  0.00  0.00    -0.380 OA
ATOM     23  H   SER A   3      62.917 -10.930  -7.058  0.00  0.00    +0.211 HD
ENDBRANCH  21  22
ENDBRANCH  18  21
ENDBRANCH  15  18
ENDBRANCH   1  14
BRANCH   1  24
ATOM     24  CB  HIS A   2      60.574  -4.929  -8.126  0.00  0.00    +0.076 C 
BRANCH  24  25
ATOM     25  CG  HIS A   2      61.869  -4.585  -7.455  0.00  0.00    +0.082 A 
ATOM     26  ND1 HIS A   2      62.414  -5.349  -6.443  0.00  0.00    -0.227 NA
ATOM     27  CE1 HIS A   2      63.575  -4.824  -6.083  0.00  0.00    +0.199 A 
ATOM     28  NE2 HIS A   2      63.799  -3.747  -6.823  0.00  0.00    -0.221 NA
ATOM     29  CD2 HIS A   2      62.751  -3.585  -7.695  0.00  0.00    +0.115 A 
ENDBRANCH  24  25
ENDBRANCH   1  24
TORSDOF 13
REMARK  Name = ../refined-set-2016/2o4j/2o4j_pocket.pdb
REMARK  284 active torsions:
REMARK  status: ('A' for Active; 'I' for Inactive)
REMARK    1  A    between atoms: _1  and  _3
REMARK    2  A    between atoms: _3  and  _4
REMARK    3  A    between atoms: _3  and  _6
REMARK    4  A    between atoms: _6  and  _7
REMARK    5  A    between atoms: _10  and  _12
REMARK    6  A    between atoms: _12  and  _13
REMARK    7  A    between atoms: _12  and  _15
REMARK    8  A    between atoms: _15  and  _16
REMARK    9  A    between atoms: _21  and  _22
REMARK   10  A    between atoms: _24  and  _26
REMARK   11  A    between atoms: _26  and  _27
REMARK   12  A    between atoms: _26  and  _29
REMARK   13  A    between atoms: _29  and  _30
REMARK   14  A    between atoms: _34  and  _35
REMARK   15  A    between atoms: _40  and  _42
REMARK   16  A    between atoms: _42  and  _43
REMARK   17  A    between atoms: _42  and  _45
REMARK   18  A    between atoms: _45  and  _46
REMARK   19  A    between atoms: _51  and  _52
REMARK   20  A    between atoms: _54  and  _56
REMARK   21  A    between atoms: _56  and  _57
REMARK   22  A    between atoms: _56  and  _59
REMARK   23  A    between atoms: _59  and  _60
REMARK   24  A    between atoms: _66  and  _68
REMARK   25  A    between atoms: _68  and  _69
REMARK   26  A    between atoms: _68  and  _71
REMARK   27  A    between atoms: _71  and  _72
REMARK   28  A    between atoms: _78  and  _80
REMARK   29  A    between atoms: _80  and  _81
REMARK   30  A    between atoms: _80  and  _83
REMARK   31  A    between atoms: _83  and  _84
REMARK   32  A    between atoms: _84  and  _85
REMARK   33  A    between atoms: _85  and  _86
REMARK   34  A    between atoms: _95  and  _97
REMARK   35  A    between atoms: _97  and  _98
REMARK   36  A    between atoms: _97  and  _100
REMARK   37  A    between atoms: _100  and  _101
REMARK   38  A    between atoms: _101  and  _102
REMARK   39  A    between atoms: _104  and  _106
REMARK   40  A    between atoms: _106  and  _107
REMARK   41  A    between atoms: _106  and  _109
REMARK   42  A    between atoms: _109  and  _110
REMARK   43  A    between atoms: _114  and  _115
REMARK   44  A    between atoms: _120  and  _122
REMARK   45  A    between atoms: _122  and  _123
REMARK   46  A    between atoms: _122  and  _125
REMARK   47  A    between atoms: _125  and  _126
REMARK   48  A    between atoms: _131  and  _133
REMARK   49  A    between atoms: _133  and  _134
REMARK   50  A    between atoms: _133  and  _136
REMARK   51  A    between atoms: _136  and  _137
REMARK   52  A    between atoms: _140  and  _142
REMARK   53  A    between atoms: _142  and  _143
REMARK   54  A    between atoms: _146  and  _148
REMARK   55  A    between atoms: _148  and  _149
REMARK   56  A    between atoms: _148  and  _151
REMARK   57  A    between atoms: _151  and  _152
REMARK   58  A    between atoms: _155  and  _157
REMARK   59  A    between atoms: _157  and  _158
REMARK   60  A    between atoms: _157  and  _160
REMARK   61  A    between atoms: _160  and  _161
REMARK   62  A    between atoms: _164  and  _166
REMARK   63  A    between atoms: _166  and  _167
REMARK   64  A    between atoms: _166  and  _169
REMARK   65  A    between atoms: _172  and  _174
REMARK   66  A    between atoms: _174  and  _175
REMARK   67  A    between atoms: _174  and  _177
REMARK   68  A    between atoms: _177  and  _178
REMARK   69  A    between atoms: _180  and  _182
REMARK   70  A    between atoms: _182  and  _183
REMARK   71  A    between atoms: _182  and  _185
REMARK   72  A    between atoms: _185  and  _186
REMARK   73  A    between atoms: _191  and  _192
REMARK   74  A    between atoms: _194  and  _196
REMARK   75  A    between atoms: _196  and  _197
REMARK   76  A    between atoms: _196  and  _199
REMARK   77  A    between atoms: _199  and  _200
REMARK   78  A    between atoms: _202  and  _204
REMARK   79  A    between atoms: _204  and  _205
REMARK   80  A    between atoms: _204  and  _207
REMARK   81  A    between atoms: _207  and  _208
REMARK   82  A    between atoms: _211  and  _213
REMARK   83  A    between atoms: _213  and  _214
REMARK   84  A    between atoms: _213  and  _216
REMARK   85  A    between atoms: _216  and  _217
REMARK   86  A    between atoms: _217  and  _218
REMARK   87  A    between atoms: _218  and  _219
REMARK   88  A    between atoms: _219  and  _220
REMARK   89  A    between atoms: _224  and  _226
REMARK   90  A    between atoms: _226  and  _227
REMARK   91  A    between atoms: _226  and  _229
REMARK   92  A    between atoms: _232  and  _234
REMARK   93  A    between atoms: _234  and  _235
REMARK   94  A    between atoms: _238  and  _240
REMARK   95  A    between atoms: _240  and  _241
REMARK   96  A    between atoms: _240  and  _243
REMARK   97  A    between atoms: _243  and  _244
REMARK   98  A    between atoms: _247  and  _249
REMARK   99  A    between atoms: _249  and  _250
REMARK  100  A    between atoms: _249  and  _252
REMARK  101  A    between atoms: _252  and  _253
REMARK  102  A    between atoms: _253  and  _254
REMARK  103  A    between atoms: _257  and  _259
REMARK  104  A    between atoms: _259  and  _260
REMARK  105  A    between atoms: _259  and  _262
REMARK  106  A    between atoms: _265  and  _267
REMARK  107  A    between atoms: _267  and  _268
REMARK  108  A    between atoms: _267  and  _270
REMARK  109  A    between atoms: _270  and  _271
REMARK  110  A    between atoms: _274  and  _276
REMARK  111  A    between atoms: _276  and  _277
REMARK  112  A    between atoms: _276  and  _279
REMARK  113  A    between atoms: _279  and  _280
REMARK  114  A    between atoms: _280  and  _281
REMARK  115  A    between atoms: _283  and  _285
REMARK  116  A    between atoms: _285  and  _286
REMARK  117  A    between atoms: _285  and  _288
REMARK  118  A    between atoms: _288  and  _289
REMARK  119  A    between atoms: _292  and  _294
REMARK  120  A    between atoms: _294  and  _295
REMARK  121  A    between atoms: _294  and  _297
REMARK  122  A    between atoms: _297  and  _298
REMARK  123  A    between atoms: _298  and  _299
REMARK  124  A    between atoms: _299  and  _300
REMARK  125  A    between atoms: _309  and  _311
REMARK  126  A    between atoms: _311  and  _312
REMARK  127  A    between atoms: _311  and  _314
REMARK  128  A    between atoms: _314  and  _315
REMARK  129  A    between atoms: _317  and  _319
REMARK  130  A    between atoms: _319  and  _320
REMARK  131  A    between atoms: _319  and  _322
REMARK  132  A    between atoms: _322  and  _323
REMARK  133  A    between atoms: _328  and  _330
REMARK  134  A    between atoms: _330  and  _331
REMARK  135  A    between atoms: _330  and  _333
REMARK  136  A    between atoms: _333  and  _334
REMARK  137  A    between atoms: _334  and  _335
REMARK  138  A    between atoms: _340  and  _342
REMARK  139  A    between atoms: _342  and  _343
REMARK  140  A    between atoms: _342  and  _345
REMARK  141  A    between atoms: _345  and  _346
REMARK  142  A    between atoms: _348  and  _350
REMARK  143  A    between atoms: _350  and  _351
REMARK  144  A    between atoms: _350  and  _353
REMARK  145  A    between atoms: _353  and  _354
REMARK  146  A    between atoms: _360  and  _362
REMARK  147  A    between atoms: _362  and  _363
REMARK  148  A    between atoms: _362  and  _365
REMARK  149  A    between atoms: _365  and  _366
REMARK  150  A    between atoms: _368  and  _370
REMARK  151  A    between atoms: _370  and  _371
REMARK  152  A    between atoms: _370  and  _373
REMARK  153  A    between atoms: _373  and  _374
REMARK  154  A    between atoms: _384  and  _386
REMARK  155  A    between atoms: _386  and  _387
REMARK  156  A    between atoms: _386  and  _389
REMARK  157  A    between atoms: _389  and  _390
REMARK  158  A    between atoms: _393  and  _395
REMARK  159  A    between atoms: _395  and  _396
REMARK  160  A    between atoms: _395  and  _398
REMARK  161  A    between atoms: _400  and  _402
REMARK  162  A    between atoms: _402  and  _403
REMARK  163  A    between atoms: _402  and  _405
REMARK  164  A    between atoms: _405  and  _406
REMARK  165  A    between atoms: _411  and  _412
REMARK  166  A    between atoms: _414  and  _416
REMARK  167  A    between atoms: _416  and  _417
REMARK  168  A    between atoms: _416  and  _419
REMARK  169  A    between atoms: _419  and  _420
REMARK  170  A    between atoms: _420  and  _421
REMARK  171  A    between atoms: _421  and  _422
REMARK  172  A    between atoms: _422  and  _423
REMARK  173  A    between atoms: _427  and  _429
REMARK  174  A    between atoms: _429  and  _430
REMARK  175  A    between atoms: _429  and  _432
REMARK  176  A    between atoms: _432  and  _433
REMARK  177  A    between atoms: _438  and  _439
REMARK  178  A    between atoms: _441  and  _443
REMARK  179  A    between atoms: _443  and  _444
REMARK  180  A    between atoms: _443  and  _446
REMARK  181  A    between atoms: _446  and  _447
REMARK  182  A    between atoms: _450  and  _452
REMARK  183  A    between atoms: _452  and  _453
REMARK  184  A    between atoms: _452  and  _455
REMARK  185  A    between atoms: _455  and  _456
REMARK  186  A    between atoms: _459  and  _461
REMARK  187  A    between atoms: _461  and  _462
REMARK  188  A    between atoms: _461  and  _464
REMARK  189  A    between atoms: _467  and  _469
REMARK  190  A    between atoms: _469  and  _470
REMARK  191  A    between atoms: _469  and  _472
REMARK  192  A    between atoms: _472  and  _473
REMARK  193  A    between atoms: _475  and  _477
REMARK  194  A    between atoms: _477  and  _478
REMARK  195  A    between atoms: _481  and  _483
REMARK  196  A    between atoms: _483  and  _484
REMARK  197  A    between atoms: _486  and  _488
REMARK  198  A    between atoms: _488  and  _489
REMARK  199  A    between atoms: _488  and  _491
REMARK  200  A    between atoms: _491  and  _492
REMARK  201  A    between atoms: _497  and  _499
REMARK  202  A    between atoms: _499  and  _500
REMARK  203  A    between atoms: _499  and  _502
REMARK  204  A    between atoms: _502  and  _503
REMARK  205  A    between atoms: _506  and  _508
REMARK  206  A    between atoms: _508  and  _509
REMARK  207  A    between atoms: _508  and  _511
REMARK  208  A    between atoms: _511  and  _512
REMARK  209  A    between atoms: _515  and  _517
REMARK  210  A    between atoms: _517  and  _518
REMARK  211  A    between atoms: _517  and  _520
REMARK  212  A    between atoms: _520  and  _521
REMARK  213  A    between atoms: _524  and  _526
REMARK  214  A    between atoms: _526  and  _527
REMARK  215  A    between atoms: _526  and  _529
REMARK  216  A    between atoms: _529  and  _530
REMARK  217  A    between atoms: _530  and  _531
REMARK  218  A    between atoms: _536  and  _538
REMARK  219  A    between atoms: _538  and  _539
REMARK  220  A    between atoms: _538  and  _541
REMARK  221  A    between atoms: _541  and  _542
REMARK  222  A    between atoms: _545  and  _547
REMARK  223  A    between atoms: _547  and  _548
REMARK  224  A    between atoms: _547  and  _550
REMARK  225  A    between atoms: _550  and  _551
REMARK  226  A    between atoms: _551  and  _552
REMARK  227  A    between atoms: _555  and  _557
REMARK  228  A    between atoms: _557  and  _558
REMARK  229  A    between atoms: _557  and  _560
REMARK  230  A    between atoms: _560  and  _561
REMARK  231  A    between atoms: _566  and  _568
REMARK  232  A    between atoms: _568  and  _569
REMARK  233  A    between atoms: _568  and  _571
REMARK  234  A    between atoms: _571  and  _572
REMARK  235  A    between atoms: _574  and  _576
REMARK  236  A    between atoms: _576  and  _577
REMARK  237  A    between atoms: _576  and  _579
REMARK  238  A    between atoms: _579  and  _580
REMARK  239  A    between atoms: _580  and  _581
REMARK  240  A    between atoms: _586  and  _588
REMARK  241  A    between atoms: _588  and  _589
REMARK  242  A    between atoms: _588  and  _591
REMARK  243  A    between atoms: _591  and  _592
REMARK  244  A    between atoms: _597  and  _598
REMARK  245  A    between atoms: _600  and  _602
REMARK  246  A    between atoms: _602  and  _603
REMARK  247  A    between atoms: _602  and  _605
REMARK  248  A    between atoms: _605  and  _606
REMARK  249  A    between atoms: _606  and  _607
REMARK  250  A    between atoms: _607  and  _608
REMARK  251  A    between atoms: _617  and  _619
REMARK  252  A    between atoms: _619  and  _620
REMARK  253  A    between atoms: _619  and  _622
REMARK  254  A    between atoms: _622  and  _623
REMARK  255  A    between atoms: _626  and  _628
REMARK  256  A    between atoms: _628  and  _629
REMARK  257  A    between atoms: _628  and  _631
REMARK  258  A    between atoms: _631  and  _632
REMARK  259  A    between atoms: _634  and  _636
REMARK  260  A    between atoms: _636  and  _637
REMARK  261  A    between atoms: _636  and  _639
REMARK  262  A    between atoms: _639  and  _640
REMARK  263  A    between atoms: _645  and  _647
REMARK  264  A    between atoms: _647  and  _648
REMARK  265  A    between atoms: _647  and  _650
REMARK  266  A    between atoms: _650  and  _651
REMARK  267  A    between atoms: _651  and  _652
REMARK  268  A    between atoms: _652  and  _653
REMARK  269  A    between atoms: _653  and  _654
REMARK  270  A    between atoms: _658  and  _660
REMARK  271  A    between atoms: _660  and  _661
REMARK  272  A    between atoms: _660  and  _663
REMARK  273  A    between atoms: _663  and  _664
REMARK  274  A    between atoms: _667  and  _669
REMARK  275  A    between atoms: _669  and  _670
REMARK  276  A    between atoms: _669  and  _672
REMARK  277  A    between atoms: _672  and  _673
REMARK  278  A    between atoms: _676  and  _678
REMARK  279  A    between atoms: _678  and  _679
REMARK  280  A    between atoms: _678  and  _681
REMARK  281  A    between atoms: _684  and  _686
REMARK  282  A    between atoms: _686  and  _687
REMARK  283  A    between atoms: _686  and  _689
REMARK  284  A    between atoms: _689  and  _690
REMARK                            x       y       z     vdW  Elec       q    Type
REMARK                         _______ _______ _______ _____ _____    ______ ____
ROOT
ATOM      1  CA  TYR A   2      66.538  -6.583  -9.957  0.00  0.00    +0.153 C 
ENDROOT
BRANCH   1   3
ATOM      2  C   GLN A   1      65.624  -6.345 -12.229  0.00  0.00    +0.238 C 
ATOM      3  N   TYR A   2      65.436  -6.522 -10.918  0.00  0.00    -0.297 N 
ATOM      4  H   TYR A   2      64.463  -6.621 -10.565  0.00  0.00    +0.150 HD
ATOM      5  O   GLN A   1      66.720  -6.083 -12.740  0.00  0.00    -0.274 OA
BRANCH   2   6
ATOM      6  CA  GLN A   1      64.376  -6.437 -13.113  0.00  0.00    +0.145 C 
BRANCH   6   7
ATOM      7  N   GLN A   1      63.426  -7.451 -12.685  0.00  0.00    -0.238 NA
ATOM      8  H   GLN A   1      62.517  -7.165 -12.268  0.00  0.00    +0.142 HD
ENDBRANCH   6   7
BRANCH   6   9
ATOM      9  CB  GLN A   1      63.727  -5.054 -13.226  0.00  0.00    +0.036 C 
BRANCH   9  10
ATOM     10  CG  GLN A   1      62.509  -5.034 -14.169  0.00  0.00    +0.087 C 
BRANCH  10  11
ATOM     11  CD  GLN A   1      62.126  -3.668 -14.615  0.00  0.00    +0.219 C 
ATOM     12  OE1 GLN A   1      62.764  -2.669 -14.264  0.00  0.00    -0.275 OA
ATOM     13  NE2 GLN A   1      61.059  -3.594 -15.406  0.00  0.00    -0.329 N 
ATOM     14 HE21 GLN A   1      60.551  -4.460 -15.677  0.00  0.00    +0.145 HD
ATOM     15 HE22 GLN A   1      60.732  -2.670 -15.754  0.00  0.00    +0.145 HD
ENDBRANCH  10  11
ENDBRANCH   9  10
ENDBRANCH   6   9
ENDBRANCH   2   6
ENDBRANCH   1   3
BRANCH   1  16
ATOM     16  C   TYR A   2      67.479  -7.764 -10.247  0.00  0.00    +0.241 C 
ATOM     17  O   TYR A   2      68.693  -7.599 -10.213  0.00  0.00    -0.273 OA
ATOM     18  N   ARG A   3      66.904  -8.935 -10.508  0.00  0.00    -0.298 N 
ATOM     19  H   ARG A   3      65.868  -9.002 -10.441  0.00  0.00    +0.150 HD
BRANCH  18  20
ATOM     20  CA  ARG A   3      67.663 -10.150 -10.890  0.00  0.00    +0.137 C 
BRANCH  20  21
ATOM     21  C   ARG A   3      68.591  -9.850 -12.074  0.00  0.00    +0.227 C 
ATOM     22  O   ARG A   3      69.783 -10.188 -12.058  0.00  0.00    -0.286 OA
ENDBRANCH  20  21
BRANCH  20  23
ATOM     23  CB  ARG A   3      66.658 -11.260 -11.215  0.00  0.00    +0.031 C 
BRANCH  23  24
ATOM     24  CG  ARG A   3      67.168 -12.690 -11.390  0.00  0.00    +0.045 C 
BRANCH  24  25
ATOM     25  CD  ARG A   3      65.992 -13.687 -11.645  0.00  0.00    +0.174 C 
BRANCH  25  26
ATOM     26  NE  ARG A   3      64.829 -13.499 -10.744  0.00  0.00    -0.265 N 
ATOM     27  HE  ARG A   3      65.007 -13.552  -9.721  0.00  0.00    +0.259 HD
ATOM     28  CZ  ARG A   3      63.567 -13.266 -11.136  0.00  0.00    +0.342 C 
ATOM     29  NH2 ARG A   3      62.601 -13.113 -10.228  0.00  0.00    -0.292 N 
ATOM     30 HH21 ARG A   3      62.826 -13.174  -9.214  0.00  0.00    +0.255 HD
ATOM     31 HH22 ARG A   3      61.624 -12.932 -10.534  0.00  0.00    +0.255 HD
ATOM     32  NH1 ARG A   3      63.253 -13.191 -12.431  0.00  0.00    -0.292 N 
ATOM     33 HH11 ARG A   3      62.270 -13.010 -12.718  0.00  0.00    +0.255 HD
ATOM     34 HH12 ARG A   3      63.991 -13.314 -13.153  0.00  0.00    +0.255 HD
ENDBRANCH  25  26
ENDBRANCH  24  25
ENDBRANCH  23  24
ENDBRANCH  20  23
ENDBRANCH  18  20
ENDBRANCH   1  16
BRANCH   1  35
ATOM     35  CB  TYR A   2      66.025  -6.680  -8.510  0.00  0.00    +0.055 C 
BRANCH  35  36
ATOM     36  CG  TYR A   2      67.169  -6.862  -7.540  0.00  0.00    -0.020 A 
ATOM     37  CD2 TYR A   2      67.812  -5.766  -6.980  0.00  0.00    -0.001 A 
ATOM     38  CE2 TYR A   2      68.888  -5.921  -6.116  0.00  0.00    +0.036 A 
ATOM     39  CZ  TYR A   2      69.304  -7.206  -5.781  0.00  0.00    +0.134 A 
ATOM     40  CE1 TYR A   2      68.684  -8.322  -6.322  0.00  0.00    +0.036 A 
ATOM     41  CD1 TYR A   2      67.608  -8.149  -7.184  0.00  0.00    -0.001 A 
BRANCH  39  42
ATOM     42  OH  TYR A   2      70.370  -7.369  -4.939  0.00  0.00    -0.506 OA
ATOM     43  HH  TYR A   2      71.096  -7.845  -5.416  0.00  0.00    +0.292 HD
ENDBRANCH  39  42
ENDBRANCH  35  36
ENDBRANCH   1  35
TORSDOF 16
REMARK  Name = ../refined-set-2016/2o4j/2o4j_pocket.pdb
REMARK  284 active torsions:
REMARK  status: ('A' for Active; 'I' for Inactive)
REMARK    1  A    between atoms: _1  and  _3
REMARK    2  A    between atoms: _3  and  _4
REMARK    3  A    between atoms: _3  and  _6
REMARK    4  A    between atoms: _6  and  _7
REMARK    5  A    between atoms: _10  and  _12
REMARK    6  A    between atoms: _12  and  _13
REMARK    7  A    between atoms: _12  and  _15
REMARK    8  A    between atoms: _15  and  _16
REMARK    9  A    between atoms: _21  and  _22
REMARK   10  A    between atoms: _24  and  _26
REMARK   11  A    between atoms: _26  and  _27
REMARK   12  A    between atoms: _26  and  _29
REMARK   13  A    between atoms: _29  and  _30
REMARK   14  A    between atoms: _34  and  _35
REMARK   15  A    between atoms: _40  and  _42
REMARK   16  A    between atoms: _42  and  _43
REMARK   17  A    between atoms: _42  and  _45
REMARK   18  A    between atoms: _45  and  _46
REMARK   19  A    between atoms: _51  and  _52
REMARK   20  A    between atoms: _54  and  _56
REMARK   21  A    between atoms: _56  and  _57
REMARK   22  A    between atoms: _56  and  _59
REMARK   23  A    between atoms: _59  and  _60
REMARK   24  A    between atoms: _66  and  _68
REMARK   25  A    between atoms: _68  and  _69
REMARK   26  A    between atoms: _68  and  _71
REMARK   27  A    between atoms: _71  and  _72
REMARK   28  A    between atoms: _78  and  _80
REMARK   29  A    between atoms: _80  and  _81
REMARK   30  A    between atoms: _80  and  _83
REMARK   31  A    between atoms: _83  and  _84
REMARK   32  A    between atoms: _84  and  _85
REMARK   33  A    between atoms: _85  and  _86
REMARK   34  A    between atoms: _95  and  _97
REMARK   35  A    between atoms: _97  and  _98
REMARK   36  A    between atoms: _97  and  _100
REMARK   37  A    between atoms: _100  and  _101
REMARK   38  A    between atoms: _101  and  _102
REMARK   39  A    between atoms: _104  and  _106
REMARK   40  A    between atoms: _106  and  _107
REMARK   41  A    between atoms: _106  and  _109
REMARK   42  A    between atoms: _109  and  _110
REMARK   43  A    between atoms: _114  and  _115
REMARK   44  A    between atoms: _120  and  _122
REMARK   45  A    between atoms: _122  and  _123
REMARK   46  A    between atoms: _122  and  _125
REMARK   47  A    between atoms: _125  and  _126
REMARK   48  A    between atoms: _131  and  _133
REMARK   49  A    between atoms: _133  and  _134
REMARK   50  A    between atoms: _133  and  _136
REMARK   51  A    between atoms: _136  and  _137
REMARK   52  A    between atoms: _140  and  _142
REMARK   53  A    between atoms: _142  and  _143
REMARK   54  A    between atoms: _146  and  _148
REMARK   55  A    between atoms: _148  and  _149
REMARK   56  A    between atoms: _148  and  _151
REMARK   57  A    between atoms: _151  and  _152
REMARK   58  A    between atoms: _155  and  _157
REMARK   59  A    between atoms: _157  and  _158
REMARK   60  A    between atoms: _157  and  _160
REMARK   61  A    between atoms: _160  and  _161
REMARK   62  A    between atoms: _164  and  _166
REMARK   63  A    between atoms: _166  and  _167
REMARK   64  A    between atoms: _166  and  _169
REMARK   65  A    between atoms: _172  and  _174
REMARK   66  A    between atoms: _174  and  _175
REMARK   67  A    between atoms: _174  and  _177
REMARK   68  A    between atoms: _177  and  _178
REMARK   69  A    between atoms: _180  and  _182
REMARK   70  A    between atoms: _182  and  _183
REMARK   71  A    between atoms: _182  and  _185
REMARK   72  A    between atoms: _185  and  _186
REMARK   73  A    between atoms: _191  and  _192
REMARK   74  A    between atoms: _194  and  _196
REMARK   75  A    between atoms: _196  and  _197
REMARK   76  A    between atoms: _196  and  _199
REMARK   77  A    between atoms: _199  and  _200
REMARK   78  A    between atoms: _202  and  _204
REMARK   79  A    between atoms: _204  and  _205
REMARK   80  A    between atoms: _204  and  _207
REMARK   81  A    between atoms: _207  and  _208
REMARK   82  A    between atoms: _211  and  _213
REMARK   83  A    between atoms: _213  and  _214
REMARK   84  A    between atoms: _213  and  _216
REMARK   85  A    between atoms: _216  and  _217
REMARK   86  A    between atoms: _217  and  _218
REMARK   87  A    between atoms: _218  and  _219
REMARK   88  A    between atoms: _219  and  _220
REMARK   89  A    between atoms: _224  and  _226
REMARK   90  A    between atoms: _226  and  _227
REMARK   91  A    between atoms: _226  and  _229
REMARK   92  A    between atoms: _232  and  _234
REMARK   93  A    between atoms: _234  and  _235
REMARK   94  A    between atoms: _238  and  _240
REMARK   95  A    between atoms: _240  and  _241
REMARK   96  A    between atoms: _240  and  _243
REMARK   97  A    between atoms: _243  and  _244
REMARK   98  A    between atoms: _247  and  _249
REMARK   99  A    between atoms: _249  and  _250
REMARK  100  A    between atoms: _249  and  _252
REMARK  101  A    between atoms: _252  and  _253
REMARK  102  A    between atoms: _253  and  _254
REMARK  103  A    between atoms: _257  and  _259
REMARK  104  A    between atoms: _259  and  _260
REMARK  105  A    between atoms: _259  and  _262
REMARK  106  A    between atoms: _265  and  _267
REMARK  107  A    between atoms: _267  and  _268
REMARK  108  A    between atoms: _267  and  _270
REMARK  109  A    between atoms: _270  and  _271
REMARK  110  A    between atoms: _274  and  _276
REMARK  111  A    between atoms: _276  and  _277
REMARK  112  A    between atoms: _276  and  _279
REMARK  113  A    between atoms: _279  and  _280
REMARK  114  A    between atoms: _280  and  _281
REMARK  115  A    between atoms: _283  and  _285
REMARK  116  A    between atoms: _285  and  _286
REMARK  117  A    between atoms: _285  and  _288
REMARK  118  A    between atoms: _288  and  _289
REMARK  119  A    between atoms: _292  and  _294
REMARK  120  A    between atoms: _294  and  _295
REMARK  121  A    between atoms: _294  and  _297
REMARK  122  A    between atoms: _297  and  _298
REMARK  123  A    between atoms: _298  and  _299
REMARK  124  A    between atoms: _299  and  _300
REMARK  125  A    between atoms: _309  and  _311
REMARK  126  A    between atoms: _311  and  _312
REMARK  127  A    between atoms: _311  and  _314
REMARK  128  A    between atoms: _314  and  _315
REMARK  129  A    between atoms: _317  and  _319
REMARK  130  A    between atoms: _319  and  _320
REMARK  131  A    between atoms: _319  and  _322
REMARK  132  A    between atoms: _322  and  _323
REMARK  133  A    between atoms: _328  and  _330
REMARK  134  A    between atoms: _330  and  _331
REMARK  135  A    between atoms: _330  and  _333
REMARK  136  A    between atoms: _333  and  _334
REMARK  137  A    between atoms: _334  and  _335
REMARK  138  A    between atoms: _340  and  _342
REMARK  139  A    between atoms: _342  and  _343
REMARK  140  A    between atoms: _342  and  _345
REMARK  141  A    between atoms: _345  and  _346
REMARK  142  A    between atoms: _348  and  _350
REMARK  143  A    between atoms: _350  and  _351
REMARK  144  A    between atoms: _350  and  _353
REMARK  145  A    between atoms: _353  and  _354
REMARK  146  A    between atoms: _360  and  _362
REMARK  147  A    between atoms: _362  and  _363
REMARK  148  A    between atoms: _362  and  _365
REMARK  149  A    between atoms: _365  and  _366
REMARK  150  A    between atoms: _368  and  _370
REMARK  151  A    between atoms: _370  and  _371
REMARK  152  A    between atoms: _370  and  _373
REMARK  153  A    between atoms: _373  and  _374
REMARK  154  A    between atoms: _384  and  _386
REMARK  155  A    between atoms: _386  and  _387
REMARK  156  A    between atoms: _386  and  _389
REMARK  157  A    between atoms: _389  and  _390
REMARK  158  A    between atoms: _393  and  _395
REMARK  159  A    between atoms: _395  and  _396
REMARK  160  A    between atoms: _395  and  _398
REMARK  161  A    between atoms: _400  and  _402
REMARK  162  A    between atoms: _402  and  _403
REMARK  163  A    between atoms: _402  and  _405
REMARK  164  A    between atoms: _405  and  _406
REMARK  165  A    between atoms: _411  and  _412
REMARK  166  A    between atoms: _414  and  _416
REMARK  167  A    between atoms: _416  and  _417
REMARK  168  A    between atoms: _416  and  _419
REMARK  169  A    between atoms: _419  and  _420
REMARK  170  A    between atoms: _420  and  _421
REMARK  171  A    between atoms: _421  and  _422
REMARK  172  A    between atoms: _422  and  _423
REMARK  173  A    between atoms: _427  and  _429
REMARK  174  A    between atoms: _429  and  _430
REMARK  175  A    between atoms: _429  and  _432
REMARK  176  A    between atoms: _432  and  _433
REMARK  177  A    between atoms: _438  and  _439
REMARK  178  A    between atoms: _441  and  _443
REMARK  179  A    between atoms: _443  and  _444
REMARK  180  A    between atoms: _443  and  _446
REMARK  181  A    between atoms: _446  and  _447
REMARK  182  A    between atoms: _450  and  _452
REMARK  183  A    between atoms: _452  and  _453
REMARK  184  A    between atoms: _452  and  _455
REMARK  185  A    between atoms: _455  and  _456
REMARK  186  A    between atoms: _459  and  _461
REMARK  187  A    between atoms: _461  and  _462
REMARK  188  A    between atoms: _461  and  _464
REMARK  189  A    between atoms: _467  and  _469
REMARK  190  A    between atoms: _469  and  _470
REMARK  191  A    between atoms: _469  and  _472
REMARK  192  A    between atoms: _472  and  _473
REMARK  193  A    between atoms: _475  and  _477
REMARK  194  A    between atoms: _477  and  _478
REMARK  195  A    between atoms: _481  and  _483
REMARK  196  A    between atoms: _483  and  _484
REMARK  197  A    between atoms: _486  and  _488
REMARK  198  A    between atoms: _488  and  _489
REMARK  199  A    between atoms: _488  and  _491
REMARK  200  A    between atoms: _491  and  _492
REMARK  201  A    between atoms: _497  and  _499
REMARK  202  A    between atoms: _499  and  _500
REMARK  203  A    between atoms: _499  and  _502
REMARK  204  A    between atoms: _502  and  _503
REMARK  205  A    between atoms: _506  and  _508
REMARK  206  A    between atoms: _508  and  _509
REMARK  207  A    between atoms: _508  and  _511
REMARK  208  A    between atoms: _511  and  _512
REMARK  209  A    between atoms: _515  and  _517
REMARK  210  A    between atoms: _517  and  _518
REMARK  211  A    between atoms: _517  and  _520
REMARK  212  A    between atoms: _520  and  _521
REMARK  213  A    between atoms: _524  and  _526
REMARK  214  A    between atoms: _526  and  _527
REMARK  215  A    between atoms: _526  and  _529
REMARK  216  A    between atoms: _529  and  _530
REMARK  217  A    between atoms: _530  and  _531
REMARK  218  A    between atoms: _536  and  _538
REMARK  219  A    between atoms: _538  and  _539
REMARK  220  A    between atoms: _538  and  _541
REMARK  221  A    between atoms: _541  and  _542
REMARK  222  A    between atoms: _545  and  _547
REMARK  223  A    between atoms: _547  and  _548
REMARK  224  A    between atoms: _547  and  _550
REMARK  225  A    between atoms: _550  and  _551
REMARK  226  A    between atoms: _551  and  _552
REMARK  227  A    between atoms: _555  and  _557
REMARK  228  A    between atoms: _557  and  _558
REMARK  229  A    between atoms: _557  and  _560
REMARK  230  A    between atoms: _560  and  _561
REMARK  231  A    between atoms: _566  and  _568
REMARK  232  A    between atoms: _568  and  _569
REMARK  233  A    between atoms: _568  and  _571
REMARK  234  A    between atoms: _571  and  _572
REMARK  235  A    between atoms: _574  and  _576
REMARK  236  A    between atoms: _576  and  _577
REMARK  237  A    between atoms: _576  and  _579
REMARK  238  A    between atoms: _579  and  _580
REMARK  239  A    between atoms: _580  and  _581
REMARK  240  A    between atoms: _586  and  _588
REMARK  241  A    between atoms: _588  and  _589
REMARK  242  A    between atoms: _588  and  _591
REMARK  243  A    between atoms: _591  and  _592
REMARK  244  A    between atoms: _597  and  _598
REMARK  245  A    between atoms: _600  and  _602
REMARK  246  A    between atoms: _602  and  _603
REMARK  247  A    between atoms: _602  and  _605
REMARK  248  A    between atoms: _605  and  _606
REMARK  249  A    between atoms: _606  and  _607
REMARK  250  A    between atoms: _607  and  _608
REMARK  251  A    between atoms: _617  and  _619
REMARK  252  A    between atoms: _619  and  _620
REMARK  253  A    between atoms: _619  and  _622
REMARK  254  A    between atoms: _622  and  _623
REMARK  255  A    between atoms: _626  and  _628
REMARK  256  A    between atoms: _628  and  _629
REMARK  257  A    between atoms: _628  and  _631
REMARK  258  A    between atoms: _631  and  _632
REMARK  259  A    between atoms: _634  and  _636
REMARK  260  A    between atoms: _636  and  _637
REMARK  261  A    between atoms: _636  and  _639
REMARK  262  A    between atoms: _639  and  _640
REMARK  263  A    between atoms: _645  and  _647
REMARK  264  A    between atoms: _647  and  _648
REMARK  265  A    between atoms: _647  and  _650
REMARK  266  A    between atoms: _650  and  _651
REMARK  267  A    between atoms: _651  and  _652
REMARK  268  A    between atoms: _652  and  _653
REMARK  269  A    between atoms: _653  and  _654
REMARK  270  A    between atoms: _658  and  _660
REMARK  271  A    between atoms: _660  and  _661
REMARK  272  A    between atoms: _660  and  _663
REMARK  273  A    between atoms: _663  and  _664
REMARK  274  A    between atoms: _667  and  _669
REMARK  275  A    between atoms: _669  and  _670
REMARK  276  A    between atoms: _669  and  _672
REMARK  277  A    between atoms: _672  and  _673
REMARK  278  A    between atoms: _676  and  _678
REMARK  279  A    between atoms: _678  and  _679
REMARK  280  A    between atoms: _678  and  _681
REMARK  281  A    between atoms: _684  and  _686
REMARK  282  A    between atoms: _686  and  _687
REMARK  283  A    between atoms: _686  and  _689
REMARK  284  A    between atoms: _689  and  _690
REMARK                            x       y       z     vdW  Elec       q    Type
REMARK                         _______ _______ _______ _____ _____    ______ ____
ROOT
ATOM      1  C   LEU A   1      71.588  -6.252 -12.020  0.00  0.00    +0.238 C 
ATOM      2  N   SER A   2      71.271  -7.045 -10.996  0.00  0.00    -0.296 N 
ATOM      3  H   SER A   2      70.277  -7.315 -10.854  0.00  0.00    +0.150 HD
ATOM      4  O   LEU A   1      72.757  -6.013 -12.337  0.00  0.00    -0.274 OA
ENDROOT
BRANCH   1   5
ATOM      5  CA  LEU A   1      70.415  -5.636 -12.806  0.00  0.00    +0.145 C 
BRANCH   5   6
ATOM      6  N   LEU A   1      69.514  -6.653 -13.343  0.00  0.00    -0.238 NA
ATOM      7  H   LEU A   1      68.496  -6.535 -13.167  0.00  0.00    +0.142 HD
ENDBRANCH   5   6
BRANCH   5   8
ATOM      8  CB  LEU A   1      69.578  -4.795 -11.846  0.00  0.00    +0.026 C 
BRANCH   8   9
ATOM      9  CG  LEU A   1      69.817  -3.420 -11.258  0.00  0.00    +0.002 C 
ATOM     10  CD2 LEU A   1      70.735  -3.454 -10.068  0.00  0.00    +0.000 C 
ATOM     11  CD1 LEU A   1      68.421  -2.988 -10.844  0.00  0.00    +0.000 C 
ENDBRANCH   8   9
ENDBRANCH   5   8
ENDBRANCH   1   5
BRANCH   2  12
ATOM     12  CA  SER A   2      72.290  -7.549 -10.061  0.00  0.00    +0.166 C 
BRANCH  12  13
ATOM     13  CB  SER A   2      73.190  -8.632 -10.672  0.00  0.00    +0.229 C 
ATOM     14  OG  SER A   2      74.289  -8.891 -10.188  0.00  0.00    -0.286 OA
ENDBRANCH  12  13
BRANCH  12  15
ATOM     15  C   SER A   2      71.644  -8.039  -8.757  0.00  0.00    +0.165 C 
BRANCH  15  16
ATOM     16  O   SER A   2      70.796  -9.167  -8.961  0.00  0.00    -0.380 OA
ATOM     17  H   SER A   2      70.404  -9.445  -8.095  0.00  0.00    +0.211 HD
ENDBRANCH  15  16
ENDBRANCH  12  15
ENDBRANCH   2  12
TORSDOF 8
REMARK  Name = ../refined-set-2016/2o4j/2o4j_pocket.pdb
REMARK  284 active torsions:
REMARK  status: ('A' for Active; 'I' for Inactive)
REMARK    1  A    between atoms: _1  and  _3
REMARK    2  A    between atoms: _3  and  _4
REMARK    3  A    between atoms: _3  and  _6
REMARK    4  A    between atoms: _6  and  _7
REMARK    5  A    between atoms: _10  and  _12
REMARK    6  A    between atoms: _12  and  _13
REMARK    7  A    between atoms: _12  and  _15
REMARK    8  A    between atoms: _15  and  _16
REMARK    9  A    between atoms: _21  and  _22
REMARK   10  A    between atoms: _24  and  _26
REMARK   11  A    between atoms: _26  and  _27
REMARK   12  A    between atoms: _26  and  _29
REMARK   13  A    between atoms: _29  and  _30
REMARK   14  A    between atoms: _34  and  _35
REMARK   15  A    between atoms: _40  and  _42
REMARK   16  A    between atoms: _42  and  _43
REMARK   17  A    between atoms: _42  and  _45
REMARK   18  A    between atoms: _45  and  _46
REMARK   19  A    between atoms: _51  and  _52
REMARK   20  A    between atoms: _54  and  _56
REMARK   21  A    between atoms: _56  and  _57
REMARK   22  A    between atoms: _56  and  _59
REMARK   23  A    between atoms: _59  and  _60
REMARK   24  A    between atoms: _66  and  _68
REMARK   25  A    between atoms: _68  and  _69
REMARK   26  A    between atoms: _68  and  _71
REMARK   27  A    between atoms: _71  and  _72
REMARK   28  A    between atoms: _78  and  _80
REMARK   29  A    between atoms: _80  and  _81
REMARK   30  A    between atoms: _80  and  _83
REMARK   31  A    between atoms: _83  and  _84
REMARK   32  A    between atoms: _84  and  _85
REMARK   33  A    between atoms: _85  and  _86
REMARK   34  A    between atoms: _95  and  _97
REMARK   35  A    between atoms: _97  and  _98
REMARK   36  A    between atoms: _97  and  _100
REMARK   37  A    between atoms: _100  and  _101
REMARK   38  A    between atoms: _101  and  _102
REMARK   39  A    between atoms: _104  and  _106
REMARK   40  A    between atoms: _106  and  _107
REMARK   41  A    between atoms: _106  and  _109
REMARK   42  A    between atoms: _109  and  _110
REMARK   43  A    between atoms: _114  and  _115
REMARK   44  A    between atoms: _120  and  _122
REMARK   45  A    between atoms: _122  and  _123
REMARK   46  A    between atoms: _122  and  _125
REMARK   47  A    between atoms: _125  and  _126
REMARK   48  A    between atoms: _131  and  _133
REMARK   49  A    between atoms: _133  and  _134
REMARK   50  A    between atoms: _133  and  _136
REMARK   51  A    between atoms: _136  and  _137
REMARK   52  A    between atoms: _140  and  _142
REMARK   53  A    between atoms: _142  and  _143
REMARK   54  A    between atoms: _146  and  _148
REMARK   55  A    between atoms: _148  and  _149
REMARK   56  A    between atoms: _148  and  _151
REMARK   57  A    between atoms: _151  and  _152
REMARK   58  A    between atoms: _155  and  _157
REMARK   59  A    between atoms: _157  and  _158
REMARK   60  A    between atoms: _157  and  _160
REMARK   61  A    between atoms: _160  and  _161
REMARK   62  A    between atoms: _164  and  _166
REMARK   63  A    between atoms: _166  and  _167
REMARK   64  A    between atoms: _166  and  _169
REMARK   65  A    between atoms: _172  and  _174
REMARK   66  A    between atoms: _174  and  _175
REMARK   67  A    between atoms: _174  and  _177
REMARK   68  A    between atoms: _177  and  _178
REMARK   69  A    between atoms: _180  and  _182
REMARK   70  A    between atoms: _182  and  _183
REMARK   71  A    between atoms: _182  and  _185
REMARK   72  A    between atoms: _185  and  _186
REMARK   73  A    between atoms: _191  and  _192
REMARK   74  A    between atoms: _194  and  _196
REMARK   75  A    between atoms: _196  and  _197
REMARK   76  A    between atoms: _196  and  _199
REMARK   77  A    between atoms: _199  and  _200
REMARK   78  A    between atoms: _202  and  _204
REMARK   79  A    between atoms: _204  and  _205
REMARK   80  A    between atoms: _204  and  _207
REMARK   81  A    between atoms: _207  and  _208
REMARK   82  A    between atoms: _211  and  _213
REMARK   83  A    between atoms: _213  and  _214
REMARK   84  A    between atoms: _213  and  _216
REMARK   85  A    between atoms: _216  and  _217
REMARK   86  A    between atoms: _217  and  _218
REMARK   87  A    between atoms: _218  and  _219
REMARK   88  A    between atoms: _219  and  _220
REMARK   89  A    between atoms: _224  and  _226
REMARK   90  A    between atoms: _226  and  _227
REMARK   91  A    between atoms: _226  and  _229
REMARK   92  A    between atoms: _232  and  _234
REMARK   93  A    between atoms: _234  and  _235
REMARK   94  A    between atoms: _238  and  _240
REMARK   95  A    between atoms: _240  and  _241
REMARK   96  A    between atoms: _240  and  _243
REMARK   97  A    between atoms: _243  and  _244
REMARK   98  A    between atoms: _247  and  _249
REMARK   99  A    between atoms: _249  and  _250
REMARK  100  A    between atoms: _249  and  _252
REMARK  101  A    between atoms: _252  and  _253
REMARK  102  A    between atoms: _253  and  _254
REMARK  103  A    between atoms: _257  and  _259
REMARK  104  A    between atoms: _259  and  _260
REMARK  105  A    between atoms: _259  and  _262
REMARK  106  A    between atoms: _265  and  _267
REMARK  107  A    between atoms: _267  and  _268
REMARK  108  A    between atoms: _267  and  _270
REMARK  109  A    between atoms: _270  and  _271
REMARK  110  A    between atoms: _274  and  _276
REMARK  111  A    between atoms: _276  and  _277
REMARK  112  A    between atoms: _276  and  _279
REMARK  113  A    between atoms: _279  and  _280
REMARK  114  A    between atoms: _280  and  _281
REMARK  115  A    between atoms: _283  and  _285
REMARK  116  A    between atoms: _285  and  _286
REMARK  117  A    between atoms: _285  and  _288
REMARK  118  A    between atoms: _288  and  _289
REMARK  119  A    between atoms: _292  and  _294
REMARK  120  A    between atoms: _294  and  _295
REMARK  121  A    between atoms: _294  and  _297
REMARK  122  A    between atoms: _297  and  _298
REMARK  123  A    between atoms: _298  and  _299
REMARK  124  A    between atoms: _299  and  _300
REMARK  125  A    between atoms: _309  and  _311
REMARK  126  A    between atoms: _311  and  _312
REMARK  127  A    between atoms: _311  and  _314
REMARK  128  A    between atoms: _314  and  _315
REMARK  129  A    between atoms: _317  and  _319
REMARK  130  A    between atoms: _319  and  _320
REMARK  131  A    between atoms: _319  and  _322
REMARK  132  A    between atoms: _322  and  _323
REMARK  133  A    between atoms: _328  and  _330
REMARK  134  A    between atoms: _330  and  _331
REMARK  135  A    between atoms: _330  and  _333
REMARK  136  A    between atoms: _333  and  _334
REMARK  137  A    between atoms: _334  and  _335
REMARK  138  A    between atoms: _340  and  _342
REMARK  139  A    between atoms: _342  and  _343
REMARK  140  A    between atoms: _342  and  _345
REMARK  141  A    between atoms: _345  and  _346
REMARK  142  A    between atoms: _348  and  _350
REMARK  143  A    between atoms: _350  and  _351
REMARK  144  A    between atoms: _350  and  _353
REMARK  145  A    between atoms: _353  and  _354
REMARK  146  A    between atoms: _360  and  _362
REMARK  147  A    between atoms: _362  and  _363
REMARK  148  A    between atoms: _362  and  _365
REMARK  149  A    between atoms: _365  and  _366
REMARK  150  A    between atoms: _368  and  _370
REMARK  151  A    between atoms: _370  and  _371
REMARK  152  A    between atoms: _370  and  _373
REMARK  153  A    between atoms: _373  and  _374
REMARK  154  A    between atoms: _384  and  _386
REMARK  155  A    between atoms: _386  and  _387
REMARK  156  A    between atoms: _386  and  _389
REMARK  157  A    between atoms: _389  and  _390
REMARK  158  A    between atoms: _393  and  _395
REMARK  159  A    between atoms: _395  and  _396
REMARK  160  A    between atoms: _395  and  _398
REMARK  161  A    between atoms: _400  and  _402
REMARK  162  A    between atoms: _402  and  _403
REMARK  163  A    between atoms: _402  and  _405
REMARK  164  A    between atoms: _405  and  _406
REMARK  165  A    between atoms: _411  and  _412
REMARK  166  A    between atoms: _414  and  _416
REMARK  167  A    between atoms: _416  and  _417
REMARK  168  A    between atoms: _416  and  _419
REMARK  169  A    between atoms: _419  and  _420
REMARK  170  A    between atoms: _420  and  _421
REMARK  171  A    between atoms: _421  and  _422
REMARK  172  A    between atoms: _422  and  _423
REMARK  173  A    between atoms: _427  and  _429
REMARK  174  A    between atoms: _429  and  _430
REMARK  175  A    between atoms: _429  and  _432
REMARK  176  A    between atoms: _432  and  _433
REMARK  177  A    between atoms: _438  and  _439
REMARK  178  A    between atoms: _441  and  _443
REMARK  179  A    between atoms: _443  and  _444
REMARK  180  A    between atoms: _443  and  _446
REMARK  181  A    between atoms: _446  and  _447
REMARK  182  A    between atoms: _450  and  _452
REMARK  183  A    between atoms: _452  and  _453
REMARK  184  A    between atoms: _452  and  _455
REMARK  185  A    between atoms: _455  and  _456
REMARK  186  A    between atoms: _459  and  _461
REMARK  187  A    between atoms: _461  and  _462
REMARK  188  A    between atoms: _461  and  _464
REMARK  189  A    between atoms: _467  and  _469
REMARK  190  A    between atoms: _469  and  _470
REMARK  191  A    between atoms: _469  and  _472
REMARK  192  A    between atoms: _472  and  _473
REMARK  193  A    between atoms: _475  and  _477
REMARK  194  A    between atoms: _477  and  _478
REMARK  195  A    between atoms: _481  and  _483
REMARK  196  A    between atoms: _483  and  _484
REMARK  197  A    between atoms: _486  and  _488
REMARK  198  A    between atoms: _488  and  _489
REMARK  199  A    between atoms: _488  and  _491
REMARK  200  A    between atoms: _491  and  _492
REMARK  201  A    between atoms: _497  and  _499
REMARK  202  A    between atoms: _499  and  _500
REMARK  203  A    between atoms: _499  and  _502
REMARK  204  A    between atoms: _502  and  _503
REMARK  205  A    between atoms: _506  and  _508
REMARK  206  A    between atoms: _508  and  _509
REMARK  207  A    between atoms: _508  and  _511
REMARK  208  A    between atoms: _511  and  _512
REMARK  209  A    between atoms: _515  and  _517
REMARK  210  A    between atoms: _517  and  _518
REMARK  211  A    between atoms: _517  and  _520
REMARK  212  A    between atoms: _520  and  _521
REMARK  213  A    between atoms: _524  and  _526
REMARK  214  A    between atoms: _526  and  _527
REMARK  215  A    between atoms: _526  and  _529
REMARK  216  A    between atoms: _529  and  _530
REMARK  217  A    between atoms: _530  and  _531
REMARK  218  A    between atoms: _536  and  _538
REMARK  219  A    between atoms: _538  and  _539
REMARK  220  A    between atoms: _538  and  _541
REMARK  221  A    between atoms: _541  and  _542
REMARK  222  A    between atoms: _545  and  _547
REMARK  223  A    between atoms: _547  and  _548
REMARK  224  A    between atoms: _547  and  _550
REMARK  225  A    between atoms: _550  and  _551
REMARK  226  A    between atoms: _551  and  _552
REMARK  227  A    between atoms: _555  and  _557
REMARK  228  A    between atoms: _557  and  _558
REMARK  229  A    between atoms: _557  and  _560
REMARK  230  A    between atoms: _560  and  _561
REMARK  231  A    between atoms: _566  and  _568
REMARK  232  A    between atoms: _568  and  _569
REMARK  233  A    between atoms: _568  and  _571
REMARK  234  A    between atoms: _571  and  _572
REMARK  235  A    between atoms: _574  and  _576
REMARK  236  A    between atoms: _576  and  _577
REMARK  237  A    between atoms: _576  and  _579
REMARK  238  A    between atoms: _579  and  _580
REMARK  239  A    between atoms: _580  and  _581
REMARK  240  A    between atoms: _586  and  _588
REMARK  241  A    between atoms: _588  and  _589
REMARK  242  A    between atoms: _588  and  _591
REMARK  243  A    between atoms: _591  and  _592
REMARK  244  A    between atoms: _597  and  _598
REMARK  245  A    between atoms: _600  and  _602
REMARK  246  A    between atoms: _602  and  _603
REMARK  247  A    between atoms: _602  and  _605
REMARK  248  A    between atoms: _605  and  _606
REMARK  249  A    between atoms: _606  and  _607
REMARK  250  A    between atoms: _607  and  _608
REMARK  251  A    between atoms: _617  and  _619
REMARK  252  A    between atoms: _619  and  _620
REMARK  253  A    between atoms: _619  and  _622
REMARK  254  A    between atoms: _622  and  _623
REMARK  255  A    between atoms: _626  and  _628
REMARK  256  A    between atoms: _628  and  _629
REMARK  257  A    between atoms: _628  and  _631
REMARK  258  A    between atoms: _631  and  _632
REMARK  259  A    between atoms: _634  and  _636
REMARK  260  A    between atoms: _636  and  _637
REMARK  261  A    between atoms: _636  and  _639
REMARK  262  A    between atoms: _639  and  _640
REMARK  263  A    between atoms: _645  and  _647
REMARK  264  A    between atoms: _647  and  _648
REMARK  265  A    between atoms: _647  and  _650
REMARK  266  A    between atoms: _650  and  _651
REMARK  267  A    between atoms: _651  and  _652
REMARK  268  A    between atoms: _652  and  _653
REMARK  269  A    between atoms: _653  and  _654
REMARK  270  A    between atoms: _658  and  _660
REMARK  271  A    between atoms: _660  and  _661
REMARK  272  A    between atoms: _660  and  _663
REMARK  273  A    between atoms: _663  and  _664
REMARK  274  A    between atoms: _667  and  _669
REMARK  275  A    between atoms: _669  and  _670
REMARK  276  A    between atoms: _669  and  _672
REMARK  277  A    between atoms: _672  and  _673
REMARK  278  A    between atoms: _676  and  _678
REMARK  279  A    between atoms: _678  and  _679
REMARK  280  A    between atoms: _678  and  _681
REMARK  281  A    between atoms: _684  and  _686
REMARK  282  A    between atoms: _686  and  _687
REMARK  283  A    between atoms: _686  and  _689
REMARK  284  A    between atoms: _689  and  _690
REMARK                            x       y       z     vdW  Elec       q    Type
REMARK                         _______ _______ _______ _____ _____    ______ ____
ROOT
ATOM      1  CB  ASN A   1      74.747  -3.498 -11.646  0.00  0.00    +0.110 C 
ENDROOT
BRANCH   1   2
ATOM      2  CG  ASN A   1      74.665  -2.921 -13.040  0.00  0.00    +0.221 C 
ATOM      3  OD1 ASN A   1      75.265  -1.880 -13.345  0.00  0.00    -0.275 OA
ATOM      4  ND2 ASN A   1      73.898  -3.598 -13.908  0.00  0.00    -0.329 N 
ATOM      5 HD21 ASN A   1      73.414  -4.467 -13.606  0.00  0.00    +0.145 HD
ATOM      6 HD22 ASN A   1      73.788  -3.253 -14.883  0.00  0.00    +0.145 HD
ENDBRANCH   1   2
BRANCH   1   7
ATOM      7  CA  ASN A   1      76.050  -3.135 -10.909  0.00  0.00    +0.142 C 
BRANCH   7   8
ATOM      8  N   ASN A   1      77.222  -3.764 -11.504  0.00  0.00    -0.239 NA
ATOM      9  H   ASN A   1      77.106  -4.639 -12.054  0.00  0.00    +0.142 HD
ENDBRANCH   7   8
BRANCH   7  10
ATOM     10  C   ASN A   1      75.935  -3.615  -9.475  0.00  0.00    +0.225 C 
ATOM     11  O   ASN A   1      75.660  -2.829  -8.580  0.00  0.00    -0.287 OA
ENDBRANCH   7  10
ENDBRANCH   1   7
TORSDOF 4
REMARK  Name = ../refined-set-2016/2o4j/2o4j_pocket.pdb
REMARK  284 active torsions:
REMARK  status: ('A' for Active; 'I' for Inactive)
REMARK    1  A    between atoms: _1  and  _3
REMARK    2  A    between atoms: _3  and  _4
REMARK    3  A    between atoms: _3  and  _6
REMARK    4  A    between atoms: _6  and  _7
REMARK    5  A    between atoms: _10  and  _12
REMARK    6  A    between atoms: _12  and  _13
REMARK    7  A    between atoms: _12  and  _15
REMARK    8  A    between atoms: _15  and  _16
REMARK    9  A    between atoms: _21  and  _22
REMARK   10  A    between atoms: _24  and  _26
REMARK   11  A    between atoms: _26  and  _27
REMARK   12  A    between atoms: _26  and  _29
REMARK   13  A    between atoms: _29  and  _30
REMARK   14  A    between atoms: _34  and  _35
REMARK   15  A    between atoms: _40  and  _42
REMARK   16  A    between atoms: _42  and  _43
REMARK   17  A    between atoms: _42  and  _45
REMARK   18  A    between atoms: _45  and  _46
REMARK   19  A    between atoms: _51  and  _52
REMARK   20  A    between atoms: _54  and  _56
REMARK   21  A    between atoms: _56  and  _57
REMARK   22  A    between atoms: _56  and  _59
REMARK   23  A    between atoms: _59  and  _60
REMARK   24  A    between atoms: _66  and  _68
REMARK   25  A    between atoms: _68  and  _69
REMARK   26  A    between atoms: _68  and  _71
REMARK   27  A    between atoms: _71  and  _72
REMARK   28  A    between atoms: _78  and  _80
REMARK   29  A    between atoms: _80  and  _81
REMARK   30  A    between atoms: _80  and  _83
REMARK   31  A    between atoms: _83  and  _84
REMARK   32  A    between atoms: _84  and  _85
REMARK   33  A    between atoms: _85  and  _86
REMARK   34  A    between atoms: _95  and  _97
REMARK   35  A    between atoms: _97  and  _98
REMARK   36  A    between atoms: _97  and  _100
REMARK   37  A    between atoms: _100  and  _101
REMARK   38  A    between atoms: _101  and  _102
REMARK   39  A    between atoms: _104  and  _106
REMARK   40  A    between atoms: _106  and  _107
REMARK   41  A    between atoms: _106  and  _109
REMARK   42  A    between atoms: _109  and  _110
REMARK   43  A    between atoms: _114  and  _115
REMARK   44  A    between atoms: _120  and  _122
REMARK   45  A    between atoms: _122  and  _123
REMARK   46  A    between atoms: _122  and  _125
REMARK   47  A    between atoms: _125  and  _126
REMARK   48  A    between atoms: _131  and  _133
REMARK   49  A    between atoms: _133  and  _134
REMARK   50  A    between atoms: _133  and  _136
REMARK   51  A    between atoms: _136  and  _137
REMARK   52  A    between atoms: _140  and  _142
REMARK   53  A    between atoms: _142  and  _143
REMARK   54  A    between atoms: _146  and  _148
REMARK   55  A    between atoms: _148  and  _149
REMARK   56  A    between atoms: _148  and  _151
REMARK   57  A    between atoms: _151  and  _152
REMARK   58  A    between atoms: _155  and  _157
REMARK   59  A    between atoms: _157  and  _158
REMARK   60  A    between atoms: _157  and  _160
REMARK   61  A    between atoms: _160  and  _161
REMARK   62  A    between atoms: _164  and  _166
REMARK   63  A    between atoms: _166  and  _167
REMARK   64  A    between atoms: _166  and  _169
REMARK   65  A    between atoms: _172  and  _174
REMARK   66  A    between atoms: _174  and  _175
REMARK   67  A    between atoms: _174  and  _177
REMARK   68  A    between atoms: _177  and  _178
REMARK   69  A    between atoms: _180  and  _182
REMARK   70  A    between atoms: _182  and  _183
REMARK   71  A    between atoms: _182  and  _185
REMARK   72  A    between atoms: _185  and  _186
REMARK   73  A    between atoms: _191  and  _192
REMARK   74  A    between atoms: _194  and  _196
REMARK   75  A    between atoms: _196  and  _197
REMARK   76  A    between atoms: _196  and  _199
REMARK   77  A    between atoms: _199  and  _200
REMARK   78  A    between atoms: _202  and  _204
REMARK   79  A    between atoms: _204  and  _205
REMARK   80  A    between atoms: _204  and  _207
REMARK   81  A    between atoms: _207  and  _208
REMARK   82  A    between atoms: _211  and  _213
REMARK   83  A    between atoms: _213  and  _214
REMARK   84  A    between atoms: _213  and  _216
REMARK   85  A    between atoms: _216  and  _217
REMARK   86  A    between atoms: _217  and  _218
REMARK   87  A    between atoms: _218  and  _219
REMARK   88  A    between atoms: _219  and  _220
REMARK   89  A    between atoms: _224  and  _226
REMARK   90  A    between atoms: _226  and  _227
REMARK   91  A    between atoms: _226  and  _229
REMARK   92  A    between atoms: _232  and  _234
REMARK   93  A    between atoms: _234  and  _235
REMARK   94  A    between atoms: _238  and  _240
REMARK   95  A    between atoms: _240  and  _241
REMARK   96  A    between atoms: _240  and  _243
REMARK   97  A    between atoms: _243  and  _244
REMARK   98  A    between atoms: _247  and  _249
REMARK   99  A    between atoms: _249  and  _250
REMARK  100  A    between atoms: _249  and  _252
REMARK  101  A    between atoms: _252  and  _253
REMARK  102  A    between atoms: _253  and  _254
REMARK  103  A    between atoms: _257  and  _259
REMARK  104  A    between atoms: _259  and  _260
REMARK  105  A    between atoms: _259  and  _262
REMARK  106  A    between atoms: _265  and  _267
REMARK  107  A    between atoms: _267  and  _268
REMARK  108  A    between atoms: _267  and  _270
REMARK  109  A    between atoms: _270  and  _271
REMARK  110  A    between atoms: _274  and  _276
REMARK  111  A    between atoms: _276  and  _277
REMARK  112  A    between atoms: _276  and  _279
REMARK  113  A    between atoms: _279  and  _280
REMARK  114  A    between atoms: _280  and  _281
REMARK  115  A    between atoms: _283  and  _285
REMARK  116  A    between atoms: _285  and  _286
REMARK  117  A    between atoms: _285  and  _288
REMARK  118  A    between atoms: _288  and  _289
REMARK  119  A    between atoms: _292  and  _294
REMARK  120  A    between atoms: _294  and  _295
REMARK  121  A    between atoms: _294  and  _297
REMARK  122  A    between atoms: _297  and  _298
REMARK  123  A    between atoms: _298  and  _299
REMARK  124  A    between atoms: _299  and  _300
REMARK  125  A    between atoms: _309  and  _311
REMARK  126  A    between atoms: _311  and  _312
REMARK  127  A    between atoms: _311  and  _314
REMARK  128  A    between atoms: _314  and  _315
REMARK  129  A    between atoms: _317  and  _319
REMARK  130  A    between atoms: _319  and  _320
REMARK  131  A    between atoms: _319  and  _322
REMARK  132  A    between atoms: _322  and  _323
REMARK  133  A    between atoms: _328  and  _330
REMARK  134  A    between atoms: _330  and  _331
REMARK  135  A    between atoms: _330  and  _333
REMARK  136  A    between atoms: _333  and  _334
REMARK  137  A    between atoms: _334  and  _335
REMARK  138  A    between atoms: _340  and  _342
REMARK  139  A    between atoms: _342  and  _343
REMARK  140  A    between atoms: _342  and  _345
REMARK  141  A    between atoms: _345  and  _346
REMARK  142  A    between atoms: _348  and  _350
REMARK  143  A    between atoms: _350  and  _351
REMARK  144  A    between atoms: _350  and  _353
REMARK  145  A    between atoms: _353  and  _354
REMARK  146  A    between atoms: _360  and  _362
REMARK  147  A    between atoms: _362  and  _363
REMARK  148  A    between atoms: _362  and  _365
REMARK  149  A    between atoms: _365  and  _366
REMARK  150  A    between atoms: _368  and  _370
REMARK  151  A    between atoms: _370  and  _371
REMARK  152  A    between atoms: _370  and  _373
REMARK  153  A    between atoms: _373  and  _374
REMARK  154  A    between atoms: _384  and  _386
REMARK  155  A    between atoms: _386  and  _387
REMARK  156  A    between atoms: _386  and  _389
REMARK  157  A    between atoms: _389  and  _390
REMARK  158  A    between atoms: _393  and  _395
REMARK  159  A    between atoms: _395  and  _396
REMARK  160  A    between atoms: _395  and  _398
REMARK  161  A    between atoms: _400  and  _402
REMARK  162  A    between atoms: _402  and  _403
REMARK  163  A    between atoms: _402  and  _405
REMARK  164  A    between atoms: _405  and  _406
REMARK  165  A    between atoms: _411  and  _412
REMARK  166  A    between atoms: _414  and  _416
REMARK  167  A    between atoms: _416  and  _417
REMARK  168  A    between atoms: _416  and  _419
REMARK  169  A    between atoms: _419  and  _420
REMARK  170  A    between atoms: _420  and  _421
REMARK  171  A    between atoms: _421  and  _422
REMARK  172  A    between atoms: _422  and  _423
REMARK  173  A    between atoms: _427  and  _429
REMARK  174  A    between atoms: _429  and  _430
REMARK  175  A    between atoms: _429  and  _432
REMARK  176  A    between atoms: _432  and  _433
REMARK  177  A    between atoms: _438  and  _439
REMARK  178  A    between atoms: _441  and  _443
REMARK  179  A    between atoms: _443  and  _444
REMARK  180  A    between atoms: _443  and  _446
REMARK  181  A    between atoms: _446  and  _447
REMARK  182  A    between atoms: _450  and  _452
REMARK  183  A    between atoms: _452  and  _453
REMARK  184  A    between atoms: _452  and  _455
REMARK  185  A    between atoms: _455  and  _456
REMARK  186  A    between atoms: _459  and  _461
REMARK  187  A    between atoms: _461  and  _462
REMARK  188  A    between atoms: _461  and  _464
REMARK  189  A    between atoms: _467  and  _469
REMARK  190  A    between atoms: _469  and  _470
REMARK  191  A    between atoms: _469  and  _472
REMARK  192  A    between atoms: _472  and  _473
REMARK  193  A    between atoms: _475  and  _477
REMARK  194  A    between atoms: _477  and  _478
REMARK  195  A    between atoms: _481  and  _483
REMARK  196  A    between atoms: _483  and  _484
REMARK  197  A    between atoms: _486  and  _488
REMARK  198  A    between atoms: _488  and  _489
REMARK  199  A    between atoms: _488  and  _491
REMARK  200  A    between atoms: _491  and  _492
REMARK  201  A    between atoms: _497  and  _499
REMARK  202  A    between atoms: _499  and  _500
REMARK  203  A    between atoms: _499  and  _502
REMARK  204  A    between atoms: _502  and  _503
REMARK  205  A    between atoms: _506  and  _508
REMARK  206  A    between atoms: _508  and  _509
REMARK  207  A    between atoms: _508  and  _511
REMARK  208  A    between atoms: _511  and  _512
REMARK  209  A    between atoms: _515  and  _517
REMARK  210  A    between atoms: _517  and  _518
REMARK  211  A    between atoms: _517  and  _520
REMARK  212  A    between atoms: _520  and  _521
REMARK  213  A    between atoms: _524  and  _526
REMARK  214  A    between atoms: _526  and  _527
REMARK  215  A    between atoms: _526  and  _529
REMARK  216  A    between atoms: _529  and  _530
REMARK  217  A    between atoms: _530  and  _531
REMARK  218  A    between atoms: _536  and  _538
REMARK  219  A    between atoms: _538  and  _539
REMARK  220  A    between atoms: _538  and  _541
REMARK  221  A    between atoms: _541  and  _542
REMARK  222  A    between atoms: _545  and  _547
REMARK  223  A    between atoms: _547  and  _548
REMARK  224  A    between atoms: _547  and  _550
REMARK  225  A    between atoms: _550  and  _551
REMARK  226  A    between atoms: _551  and  _552
REMARK  227  A    between atoms: _555  and  _557
REMARK  228  A    between atoms: _557  and  _558
REMARK  229  A    between atoms: _557  and  _560
REMARK  230  A    between atoms: _560  and  _561
REMARK  231  A    between atoms: _566  and  _568
REMARK  232  A    between atoms: _568  and  _569
REMARK  233  A    between atoms: _568  and  _571
REMARK  234  A    between atoms: _571  and  _572
REMARK  235  A    between atoms: _574  and  _576
REMARK  236  A    between atoms: _576  and  _577
REMARK  237  A    between atoms: _576  and  _579
REMARK  238  A    between atoms: _579  and  _580
REMARK  239  A    between atoms: _580  and  _581
REMARK  240  A    between atoms: _586  and  _588
REMARK  241  A    between atoms: _588  and  _589
REMARK  242  A    between atoms: _588  and  _591
REMARK  243  A    between atoms: _591  and  _592
REMARK  244  A    between atoms: _597  and  _598
REMARK  245  A    between atoms: _600  and  _602
REMARK  246  A    between atoms: _602  and  _603
REMARK  247  A    between atoms: _602  and  _605
REMARK  248  A    between atoms: _605  and  _606
REMARK  249  A    between atoms: _606  and  _607
REMARK  250  A    between atoms: _607  and  _608
REMARK  251  A    between atoms: _617  and  _619
REMARK  252  A    between atoms: _619  and  _620
REMARK  253  A    between atoms: _619  and  _622
REMARK  254  A    between atoms: _622  and  _623
REMARK  255  A    between atoms: _626  and  _628
REMARK  256  A    between atoms: _628  and  _629
REMARK  257  A    between atoms: _628  and  _631
REMARK  258  A    between atoms: _631  and  _632
REMARK  259  A    between atoms: _634  and  _636
REMARK  260  A    between atoms: _636  and  _637
REMARK  261  A    between atoms: _636  and  _639
REMARK  262  A    between atoms: _639  and  _640
REMARK  263  A    between atoms: _645  and  _647
REMARK  264  A    between atoms: _647  and  _648
REMARK  265  A    between atoms: _647  and  _650
REMARK  266  A    between atoms: _650  and  _651
REMARK  267  A    between atoms: _651  and  _652
REMARK  268  A    between atoms: _652  and  _653
REMARK  269  A    between atoms: _653  and  _654
REMARK  270  A    between atoms: _658  and  _660
REMARK  271  A    between atoms: _660  and  _661
REMARK  272  A    between atoms: _660  and  _663
REMARK  273  A    between atoms: _663  and  _664
REMARK  274  A    between atoms: _667  and  _669
REMARK  275  A    between atoms: _669  and  _670
REMARK  276  A    between atoms: _669  and  _672
REMARK  277  A    between atoms: _672  and  _673
REMARK  278  A    between atoms: _676  and  _678
REMARK  279  A    between atoms: _678  and  _679
REMARK  280  A    between atoms: _678  and  _681
REMARK  281  A    between atoms: _684  and  _686
REMARK  282  A    between atoms: _686  and  _687
REMARK  283  A    between atoms: _686  and  _689
REMARK  284  A    between atoms: _689  and  _690
REMARK                            x       y       z     vdW  Elec       q    Type
REMARK                         _______ _______ _______ _____ _____    ______ ____
ROOT
ATOM      1  CA  LEU A   2      74.534  -2.166  -4.122  0.00  0.00    +0.149 C 
ENDROOT
BRANCH   1   4
ATOM      2  C   LYS A   1      75.990  -0.697  -5.376  0.00  0.00    +0.238 C 
ATOM      3  O   LYS A   1      75.498   0.322  -4.851  0.00  0.00    -0.274 OA
ATOM      4  N   LEU A   2      75.611  -1.931  -5.060  0.00  0.00    -0.297 N 
ATOM      5  H   LEU A   2      76.097  -2.742  -5.494  0.00  0.00    +0.150 HD
BRANCH   2   6
ATOM      6  CA  LYS A   1      77.097  -0.576  -6.415  0.00  0.00    +0.145 C 
BRANCH   6   7
ATOM      7  N   LYS A   1      77.665  -1.855  -6.846  0.00  0.00    -0.238 NA
ATOM      8  H   LYS A   1      77.257  -2.348  -7.666  0.00  0.00    +0.142 HD
ENDBRANCH   6   7
BRANCH   6   9
ATOM      9  CB  LYS A   1      76.602   0.267  -7.620  0.00  0.00    +0.026 C 
BRANCH   9  10
ATOM     10  CG  LYS A   1      77.662   0.584  -8.693  0.00  0.00    -0.000 C 
BRANCH  10  11
ATOM     11  CD  LYS A   1      78.931   1.217  -8.138  0.00  0.00    -0.024 C 
BRANCH  11  12
ATOM     12  CE  LYS A   1      79.902   1.609  -9.278  0.00  0.00    -0.086 C 
BRANCH  12  13
ATOM     13  NZ  LYS A   1      80.251   0.462 -10.184  0.00  0.00    +0.380 N 
ATOM     14  HZ1 LYS A   1      80.707  -0.290  -9.629  0.00  0.00    -0.089 HD
ATOM     15  HZ2 LYS A   1      79.384   0.093 -10.624  0.00  0.00    -0.089 HD
ATOM     16  HZ3 LYS A   1      80.903   0.792 -10.924  0.00  0.00    -0.089 HD
ENDBRANCH  12  13
ENDBRANCH  11  12
ENDBRANCH  10  11
ENDBRANCH   9  10
ENDBRANCH   6   9
ENDBRANCH   2   6
ENDBRANCH   1   4
BRANCH   1  17
ATOM     17  C   LEU A   2      75.113  -2.171  -2.708  0.00  0.00    +0.241 C 
ATOM     18  N   THR A   3      74.275  -2.439  -1.710  0.00  0.00    -0.296 N 
ATOM     19  H   THR A   3      73.263  -2.574  -1.908  0.00  0.00    +0.150 HD
ATOM     20  O   LEU A   2      76.315  -1.939  -2.521  0.00  0.00    -0.273 OA
BRANCH  18  21
ATOM     21  CA  THR A   3      74.760  -2.544  -0.352  0.00  0.00    +0.164 C 
BRANCH  21  22
ATOM     22  CB  THR A   3      73.915  -1.726   0.586  0.00  0.00    +0.136 C 
ATOM     23  CG2 THR A   3      73.723  -0.291   0.028  0.00  0.00    +0.034 C 
BRANCH  22  24
ATOM     24  OG1 THR A   3      72.651  -2.368   0.755  0.00  0.00    -0.382 OA
ATOM     25  HG1 THR A   3      72.091  -1.834   1.372  0.00  0.00    +0.210 HD
ENDBRANCH  22  24
ENDBRANCH  21  22
BRANCH  21  26
ATOM     26  C   THR A   3      74.687  -4.000   0.080  0.00  0.00    +0.229 C 
ATOM     27  O   THR A   3      73.955  -4.745  -0.508  0.00  0.00    -0.286 OA
ENDBRANCH  21  26
ENDBRANCH  18  21
ENDBRANCH   1  17
BRANCH   1  28
ATOM     28  CB  LEU A   2      73.829  -3.493  -4.448  0.00  0.00    +0.029 C 
BRANCH  28  29
ATOM     29  CG  LEU A   2      73.145  -3.585  -5.846  0.00  0.00    +0.002 C 
ATOM     30  CD2 LEU A   2      72.530  -4.934  -6.088  0.00  0.00    +0.000 C 
ATOM     31  CD1 LEU A   2      72.081  -2.510  -6.102  0.00  0.00    +0.000 C 
ENDBRANCH  28  29
ENDBRANCH   1  28
TORSDOF 15
REMARK  Name = ../refined-set-2016/2o4j/2o4j_pocket.pdb
REMARK  284 active torsions:
REMARK  status: ('A' for Active; 'I' for Inactive)
REMARK    1  A    between atoms: _1  and  _3
REMARK    2  A    between atoms: _3  and  _4
REMARK    3  A    between atoms: _3  and  _6
REMARK    4  A    between atoms: _6  and  _7
REMARK    5  A    between atoms: _10  and  _12
REMARK    6  A    between atoms: _12  and  _13
REMARK    7  A    between atoms: _12  and  _15
REMARK    8  A    between atoms: _15  and  _16
REMARK    9  A    between atoms: _21  and  _22
REMARK   10  A    between atoms: _24  and  _26
REMARK   11  A    between atoms: _26  and  _27
REMARK   12  A    between atoms: _26  and  _29
REMARK   13  A    between atoms: _29  and  _30
REMARK   14  A    between atoms: _34  and  _35
REMARK   15  A    between atoms: _40  and  _42
REMARK   16  A    between atoms: _42  and  _43
REMARK   17  A    between atoms: _42  and  _45
REMARK   18  A    between atoms: _45  and  _46
REMARK   19  A    between atoms: _51  and  _52
REMARK   20  A    between atoms: _54  and  _56
REMARK   21  A    between atoms: _56  and  _57
REMARK   22  A    between atoms: _56  and  _59
REMARK   23  A    between atoms: _59  and  _60
REMARK   24  A    between atoms: _66  and  _68
REMARK   25  A    between atoms: _68  and  _69
REMARK   26  A    between atoms: _68  and  _71
REMARK   27  A    between atoms: _71  and  _72
REMARK   28  A    between atoms: _78  and  _80
REMARK   29  A    between atoms: _80  and  _81
REMARK   30  A    between atoms: _80  and  _83
REMARK   31  A    between atoms: _83  and  _84
REMARK   32  A    between atoms: _84  and  _85
REMARK   33  A    between atoms: _85  and  _86
REMARK   34  A    between atoms: _95  and  _97
REMARK   35  A    between atoms: _97  and  _98
REMARK   36  A    between atoms: _97  and  _100
REMARK   37  A    between atoms: _100  and  _101
REMARK   38  A    between atoms: _101  and  _102
REMARK   39  A    between atoms: _104  and  _106
REMARK   40  A    between atoms: _106  and  _107
REMARK   41  A    between atoms: _106  and  _109
REMARK   42  A    between atoms: _109  and  _110
REMARK   43  A    between atoms: _114  and  _115
REMARK   44  A    between atoms: _120  and  _122
REMARK   45  A    between atoms: _122  and  _123
REMARK   46  A    between atoms: _122  and  _125
REMARK   47  A    between atoms: _125  and  _126
REMARK   48  A    between atoms: _131  and  _133
REMARK   49  A    between atoms: _133  and  _134
REMARK   50  A    between atoms: _133  and  _136
REMARK   51  A    between atoms: _136  and  _137
REMARK   52  A    between atoms: _140  and  _142
REMARK   53  A    between atoms: _142  and  _143
REMARK   54  A    between atoms: _146  and  _148
REMARK   55  A    between atoms: _148  and  _149
REMARK   56  A    between atoms: _148  and  _151
REMARK   57  A    between atoms: _151  and  _152
REMARK   58  A    between atoms: _155  and  _157
REMARK   59  A    between atoms: _157  and  _158
REMARK   60  A    between atoms: _157  and  _160
REMARK   61  A    between atoms: _160  and  _161
REMARK   62  A    between atoms: _164  and  _166
REMARK   63  A    between atoms: _166  and  _167
REMARK   64  A    between atoms: _166  and  _169
REMARK   65  A    between atoms: _172  and  _174
REMARK   66  A    between atoms: _174  and  _175
REMARK   67  A    between atoms: _174  and  _177
REMARK   68  A    between atoms: _177  and  _178
REMARK   69  A    between atoms: _180  and  _182
REMARK   70  A    between atoms: _182  and  _183
REMARK   71  A    between atoms: _182  and  _185
REMARK   72  A    between atoms: _185  and  _186
REMARK   73  A    between atoms: _191  and  _192
REMARK   74  A    between atoms: _194  and  _196
REMARK   75  A    between atoms: _196  and  _197
REMARK   76  A    between atoms: _196  and  _199
REMARK   77  A    between atoms: _199  and  _200
REMARK   78  A    between atoms: _202  and  _204
REMARK   79  A    between atoms: _204  and  _205
REMARK   80  A    between atoms: _204  and  _207
REMARK   81  A    between atoms: _207  and  _208
REMARK   82  A    between atoms: _211  and  _213
REMARK   83  A    between atoms: _213  and  _214
REMARK   84  A    between atoms: _213  and  _216
REMARK   85  A    between atoms: _216  and  _217
REMARK   86  A    between atoms: _217  and  _218
REMARK   87  A    between atoms: _218  and  _219
REMARK   88  A    between atoms: _219  and  _220
REMARK   89  A    between atoms: _224  and  _226
REMARK   90  A    between atoms: _226  and  _227
REMARK   91  A    between atoms: _226  and  _229
REMARK   92  A    between atoms: _232  and  _234
REMARK   93  A    between atoms: _234  and  _235
REMARK   94  A    between atoms: _238  and  _240
REMARK   95  A    between atoms: _240  and  _241
REMARK   96  A    between atoms: _240  and  _243
REMARK   97  A    between atoms: _243  and  _244
REMARK   98  A    between atoms: _247  and  _249
REMARK   99  A    between atoms: _249  and  _250
REMARK  100  A    between atoms: _249  and  _252
REMARK  101  A    between atoms: _252  and  _253
REMARK  102  A    between atoms: _253  and  _254
REMARK  103  A    between atoms: _257  and  _259
REMARK  104  A    between atoms: _259  and  _260
REMARK  105  A    between atoms: _259  and  _262
REMARK  106  A    between atoms: _265  and  _267
REMARK  107  A    between atoms: _267  and  _268
REMARK  108  A    between atoms: _267  and  _270
REMARK  109  A    between atoms: _270  and  _271
REMARK  110  A    between atoms: _274  and  _276
REMARK  111  A    between atoms: _276  and  _277
REMARK  112  A    between atoms: _276  and  _279
REMARK  113  A    between atoms: _279  and  _280
REMARK  114  A    between atoms: _280  and  _281
REMARK  115  A    between atoms: _283  and  _285
REMARK  116  A    between atoms: _285  and  _286
REMARK  117  A    between atoms: _285  and  _288
REMARK  118  A    between atoms: _288  and  _289
REMARK  119  A    between atoms: _292  and  _294
REMARK  120  A    between atoms: _294  and  _295
REMARK  121  A    between atoms: _294  and  _297
REMARK  122  A    between atoms: _297  and  _298
REMARK  123  A    between atoms: _298  and  _299
REMARK  124  A    between atoms: _299  and  _300
REMARK  125  A    between atoms: _309  and  _311
REMARK  126  A    between atoms: _311  and  _312
REMARK  127  A    between atoms: _311  and  _314
REMARK  128  A    between atoms: _314  and  _315
REMARK  129  A    between atoms: _317  and  _319
REMARK  130  A    between atoms: _319  and  _320
REMARK  131  A    between atoms: _319  and  _322
REMARK  132  A    between atoms: _322  and  _323
REMARK  133  A    between atoms: _328  and  _330
REMARK  134  A    between atoms: _330  and  _331
REMARK  135  A    between atoms: _330  and  _333
REMARK  136  A    between atoms: _333  and  _334
REMARK  137  A    between atoms: _334  and  _335
REMARK  138  A    between atoms: _340  and  _342
REMARK  139  A    between atoms: _342  and  _343
REMARK  140  A    between atoms: _342  and  _345
REMARK  141  A    between atoms: _345  and  _346
REMARK  142  A    between atoms: _348  and  _350
REMARK  143  A    between atoms: _350  and  _351
REMARK  144  A    between atoms: _350  and  _353
REMARK  145  A    between atoms: _353  and  _354
REMARK  146  A    between atoms: _360  and  _362
REMARK  147  A    between atoms: _362  and  _363
REMARK  148  A    between atoms: _362  and  _365
REMARK  149  A    between atoms: _365  and  _366
REMARK  150  A    between atoms: _368  and  _370
REMARK  151  A    between atoms: _370  and  _371
REMARK  152  A    between atoms: _370  and  _373
REMARK  153  A    between atoms: _373  and  _374
REMARK  154  A    between atoms: _384  and  _386
REMARK  155  A    between atoms: _386  and  _387
REMARK  156  A    between atoms: _386  and  _389
REMARK  157  A    between atoms: _389  and  _390
REMARK  158  A    between atoms: _393  and  _395
REMARK  159  A    between atoms: _395  and  _396
REMARK  160  A    between atoms: _395  and  _398
REMARK  161  A    between atoms: _400  and  _402
REMARK  162  A    between atoms: _402  and  _403
REMARK  163  A    between atoms: _402  and  _405
REMARK  164  A    between atoms: _405  and  _406
REMARK  165  A    between atoms: _411  and  _412
REMARK  166  A    between atoms: _414  and  _416
REMARK  167  A    between atoms: _416  and  _417
REMARK  168  A    between atoms: _416  and  _419
REMARK  169  A    between atoms: _419  and  _420
REMARK  170  A    between atoms: _420  and  _421
REMARK  171  A    between atoms: _421  and  _422
REMARK  172  A    between atoms: _422  and  _423
REMARK  173  A    between atoms: _427  and  _429
REMARK  174  A    between atoms: _429  and  _430
REMARK  175  A    between atoms: _429  and  _432
REMARK  176  A    between atoms: _432  and  _433
REMARK  177  A    between atoms: _438  and  _439
REMARK  178  A    between atoms: _441  and  _443
REMARK  179  A    between atoms: _443  and  _444
REMARK  180  A    between atoms: _443  and  _446
REMARK  181  A    between atoms: _446  and  _447
REMARK  182  A    between atoms: _450  and  _452
REMARK  183  A    between atoms: _452  and  _453
REMARK  184  A    between atoms: _452  and  _455
REMARK  185  A    between atoms: _455  and  _456
REMARK  186  A    between atoms: _459  and  _461
REMARK  187  A    between atoms: _461  and  _462
REMARK  188  A    between atoms: _461  and  _464
REMARK  189  A    between atoms: _467  and  _469
REMARK  190  A    between atoms: _469  and  _470
REMARK  191  A    between atoms: _469  and  _472
REMARK  192  A    between atoms: _472  and  _473
REMARK  193  A    between atoms: _475  and  _477
REMARK  194  A    between atoms: _477  and  _478
REMARK  195  A    between atoms: _481  and  _483
REMARK  196  A    between atoms: _483  and  _484
REMARK  197  A    between atoms: _486  and  _488
REMARK  198  A    between atoms: _488  and  _489
REMARK  199  A    between atoms: _488  and  _491
REMARK  200  A    between atoms: _491  and  _492
REMARK  201  A    between atoms: _497  and  _499
REMARK  202  A    between atoms: _499  and  _500
REMARK  203  A    between atoms: _499  and  _502
REMARK  204  A    between atoms: _502  and  _503
REMARK  205  A    between atoms: _506  and  _508
REMARK  206  A    between atoms: _508  and  _509
REMARK  207  A    between atoms: _508  and  _511
REMARK  208  A    between atoms: _511  and  _512
REMARK  209  A    between atoms: _515  and  _517
REMARK  210  A    between atoms: _517  and  _518
REMARK  211  A    between atoms: _517  and  _520
REMARK  212  A    between atoms: _520  and  _521
REMARK  213  A    between atoms: _524  and  _526
REMARK  214  A    between atoms: _526  and  _527
REMARK  215  A    between atoms: _526  and  _529
REMARK  216  A    between atoms: _529  and  _530
REMARK  217  A    between atoms: _530  and  _531
REMARK  218  A    between atoms: _536  and  _538
REMARK  219  A    between atoms: _538  and  _539
REMARK  220  A    between atoms: _538  and  _541
REMARK  221  A    between atoms: _541  and  _542
REMARK  222  A    between atoms: _545  and  _547
REMARK  223  A    between atoms: _547  and  _548
REMARK  224  A    between atoms: _547  and  _550
REMARK  225  A    between atoms: _550  and  _551
REMARK  226  A    between atoms: _551  and  _552
REMARK  227  A    between atoms: _555  and  _557
REMARK  228  A    between atoms: _557  and  _558
REMARK  229  A    between atoms: _557  and  _560
REMARK  230  A    between atoms: _560  and  _561
REMARK  231  A    between atoms: _566  and  _568
REMARK  232  A    between atoms: _568  and  _569
REMARK  233  A    between atoms: _568  and  _571
REMARK  234  A    between atoms: _571  and  _572
REMARK  235  A    between atoms: _574  and  _576
REMARK  236  A    between atoms: _576  and  _577
REMARK  237  A    between atoms: _576  and  _579
REMARK  238  A    between atoms: _579  and  _580
REMARK  239  A    between atoms: _580  and  _581
REMARK  240  A    between atoms: _586  and  _588
REMARK  241  A    between atoms: _588  and  _589
REMARK  242  A    between atoms: _588  and  _591
REMARK  243  A    between atoms: _591  and  _592
REMARK  244  A    between atoms: _597  and  _598
REMARK  245  A    between atoms: _600  and  _602
REMARK  246  A    between atoms: _602  and  _603
REMARK  247  A    between atoms: _602  and  _605
REMARK  248  A    between atoms: _605  and  _606
REMARK  249  A    between atoms: _606  and  _607
REMARK  250  A    between atoms: _607  and  _608
REMARK  251  A    between atoms: _617  and  _619
REMARK  252  A    between atoms: _619  and  _620
REMARK  253  A    between atoms: _619  and  _622
REMARK  254  A    between atoms: _622  and  _623
REMARK  255  A    between atoms: _626  and  _628
REMARK  256  A    between atoms: _628  and  _629
REMARK  257  A    between atoms: _628  and  _631
REMARK  258  A    between atoms: _631  and  _632
REMARK  259  A    between atoms: _634  and  _636
REMARK  260  A    between atoms: _636  and  _637
REMARK  261  A    between atoms: _636  and  _639
REMARK  262  A    between atoms: _639  and  _640
REMARK  263  A    between atoms: _645  and  _647
REMARK  264  A    between atoms: _647  and  _648
REMARK  265  A    between atoms: _647  and  _650
REMARK  266  A    between atoms: _650  and  _651
REMARK  267  A    between atoms: _651  and  _652
REMARK  268  A    between atoms: _652  and  _653
REMARK  269  A    between atoms: _653  and  _654
REMARK  270  A    between atoms: _658  and  _660
REMARK  271  A    between atoms: _660  and  _661
REMARK  272  A    between atoms: _660  and  _663
REMARK  273  A    between atoms: _663  and  _664
REMARK  274  A    between atoms: _667  and  _669
REMARK  275  A    between atoms: _669  and  _670
REMARK  276  A    between atoms: _669  and  _672
REMARK  277  A    between atoms: _672  and  _673
REMARK  278  A    between atoms: _676  and  _678
REMARK  279  A    between atoms: _678  and  _679
REMARK  280  A    between atoms: _678  and  _681
REMARK  281  A    between atoms: _684  and  _686
REMARK  282  A    between atoms: _686  and  _687
REMARK  283  A    between atoms: _686  and  _689
REMARK  284  A    between atoms: _689  and  _690
REMARK                            x       y       z     vdW  Elec       q    Type
REMARK                         _______ _______ _______ _____ _____    ______ ____
ROOT
ATOM      1  CA  VAL A   1      70.139  -5.092  -0.334  0.00  0.00    +0.133 C 
ENDROOT
BRANCH   1   2
ATOM      2  CB  VAL A   1      70.393  -4.003  -1.342  0.00  0.00    +0.023 C 
ATOM      3  CG2 VAL A   1      69.779  -2.709  -0.806  0.00  0.00    +0.002 C 
ATOM      4  CG1 VAL A   1      69.803  -4.338  -2.730  0.00  0.00    +0.002 C 
ENDBRANCH   1   2
BRANCH   1   5
ATOM      5  N   VAL A   1      70.935  -4.871   0.891  0.00  0.00    -0.239 NA
ATOM      6  H   VAL A   1      71.573  -4.052   0.957  0.00  0.00    +0.142 HD
ENDBRANCH   1   5
BRANCH   1   7
ATOM      7  C   VAL A   1      70.442  -6.433  -0.964  0.00  0.00    +0.224 C 
ATOM      8  O   VAL A   1      69.551  -7.100  -1.438  0.00  0.00    -0.287 OA
ENDBRANCH   1   7
TORSDOF 3
REMARK  Name = ../refined-set-2016/2o4j/2o4j_pocket.pdb
REMARK  284 active torsions:
REMARK  status: ('A' for Active; 'I' for Inactive)
REMARK    1  A    between atoms: _1  and  _3
REMARK    2  A    between atoms: _3  and  _4
REMARK    3  A    between atoms: _3  and  _6
REMARK    4  A    between atoms: _6  and  _7
REMARK    5  A    between atoms: _10  and  _12
REMARK    6  A    between atoms: _12  and  _13
REMARK    7  A    between atoms: _12  and  _15
REMARK    8  A    between atoms: _15  and  _16
REMARK    9  A    between atoms: _21  and  _22
REMARK   10  A    between atoms: _24  and  _26
REMARK   11  A    between atoms: _26  and  _27
REMARK   12  A    between atoms: _26  and  _29
REMARK   13  A    between atoms: _29  and  _30
REMARK   14  A    between atoms: _34  and  _35
REMARK   15  A    between atoms: _40  and  _42
REMARK   16  A    between atoms: _42  and  _43
REMARK   17  A    between atoms: _42  and  _45
REMARK   18  A    between atoms: _45  and  _46
REMARK   19  A    between atoms: _51  and  _52
REMARK   20  A    between atoms: _54  and  _56
REMARK   21  A    between atoms: _56  and  _57
REMARK   22  A    between atoms: _56  and  _59
REMARK   23  A    between atoms: _59  and  _60
REMARK   24  A    between atoms: _66  and  _68
REMARK   25  A    between atoms: _68  and  _69
REMARK   26  A    between atoms: _68  and  _71
REMARK   27  A    between atoms: _71  and  _72
REMARK   28  A    between atoms: _78  and  _80
REMARK   29  A    between atoms: _80  and  _81
REMARK   30  A    between atoms: _80  and  _83
REMARK   31  A    between atoms: _83  and  _84
REMARK   32  A    between atoms: _84  and  _85
REMARK   33  A    between atoms: _85  and  _86
REMARK   34  A    between atoms: _95  and  _97
REMARK   35  A    between atoms: _97  and  _98
REMARK   36  A    between atoms: _97  and  _100
REMARK   37  A    between atoms: _100  and  _101
REMARK   38  A    between atoms: _101  and  _102
REMARK   39  A    between atoms: _104  and  _106
REMARK   40  A    between atoms: _106  and  _107
REMARK   41  A    between atoms: _106  and  _109
REMARK   42  A    between atoms: _109  and  _110
REMARK   43  A    between atoms: _114  and  _115
REMARK   44  A    between atoms: _120  and  _122
REMARK   45  A    between atoms: _122  and  _123
REMARK   46  A    between atoms: _122  and  _125
REMARK   47  A    between atoms: _125  and  _126
REMARK   48  A    between atoms: _131  and  _133
REMARK   49  A    between atoms: _133  and  _134
REMARK   50  A    between atoms: _133  and  _136
REMARK   51  A    between atoms: _136  and  _137
REMARK   52  A    between atoms: _140  and  _142
REMARK   53  A    between atoms: _142  and  _143
REMARK   54  A    between atoms: _146  and  _148
REMARK   55  A    between atoms: _148  and  _149
REMARK   56  A    between atoms: _148  and  _151
REMARK   57  A    between atoms: _151  and  _152
REMARK   58  A    between atoms: _155  and  _157
REMARK   59  A    between atoms: _157  and  _158
REMARK   60  A    between atoms: _157  and  _160
REMARK   61  A    between atoms: _160  and  _161
REMARK   62  A    between atoms: _164  and  _166
REMARK   63  A    between atoms: _166  and  _167
REMARK   64  A    between atoms: _166  and  _169
REMARK   65  A    between atoms: _172  and  _174
REMARK   66  A    between atoms: _174  and  _175
REMARK   67  A    between atoms: _174  and  _177
REMARK   68  A    between atoms: _177  and  _178
REMARK   69  A    between atoms: _180  and  _182
REMARK   70  A    between atoms: _182  and  _183
REMARK   71  A    between atoms: _182  and  _185
REMARK   72  A    between atoms: _185  and  _186
REMARK   73  A    between atoms: _191  and  _192
REMARK   74  A    between atoms: _194  and  _196
REMARK   75  A    between atoms: _196  and  _197
REMARK   76  A    between atoms: _196  and  _199
REMARK   77  A    between atoms: _199  and  _200
REMARK   78  A    between atoms: _202  and  _204
REMARK   79  A    between atoms: _204  and  _205
REMARK   80  A    between atoms: _204  and  _207
REMARK   81  A    between atoms: _207  and  _208
REMARK   82  A    between atoms: _211  and  _213
REMARK   83  A    between atoms: _213  and  _214
REMARK   84  A    between atoms: _213  and  _216
REMARK   85  A    between atoms: _216  and  _217
REMARK   86  A    between atoms: _217  and  _218
REMARK   87  A    between atoms: _218  and  _219
REMARK   88  A    between atoms: _219  and  _220
REMARK   89  A    between atoms: _224  and  _226
REMARK   90  A    between atoms: _226  and  _227
REMARK   91  A    between atoms: _226  and  _229
REMARK   92  A    between atoms: _232  and  _234
REMARK   93  A    between atoms: _234  and  _235
REMARK   94  A    between atoms: _238  and  _240
REMARK   95  A    between atoms: _240  and  _241
REMARK   96  A    between atoms: _240  and  _243
REMARK   97  A    between atoms: _243  and  _244
REMARK   98  A    between atoms: _247  and  _249
REMARK   99  A    between atoms: _249  and  _250
REMARK  100  A    between atoms: _249  and  _252
REMARK  101  A    between atoms: _252  and  _253
REMARK  102  A    between atoms: _253  and  _254
REMARK  103  A    between atoms: _257  and  _259
REMARK  104  A    between atoms: _259  and  _260
REMARK  105  A    between atoms: _259  and  _262
REMARK  106  A    between atoms: _265  and  _267
REMARK  107  A    between atoms: _267  and  _268
REMARK  108  A    between atoms: _267  and  _270
REMARK  109  A    between atoms: _270  and  _271
REMARK  110  A    between atoms: _274  and  _276
REMARK  111  A    between atoms: _276  and  _277
REMARK  112  A    between atoms: _276  and  _279
REMARK  113  A    between atoms: _279  and  _280
REMARK  114  A    between atoms: _280  and  _281
REMARK  115  A    between atoms: _283  and  _285
REMARK  116  A    between atoms: _285  and  _286
REMARK  117  A    between atoms: _285  and  _288
REMARK  118  A    between atoms: _288  and  _289
REMARK  119  A    between atoms: _292  and  _294
REMARK  120  A    between atoms: _294  and  _295
REMARK  121  A    between atoms: _294  and  _297
REMARK  122  A    between atoms: _297  and  _298
REMARK  123  A    between atoms: _298  and  _299
REMARK  124  A    between atoms: _299  and  _300
REMARK  125  A    between atoms: _309  and  _311
REMARK  126  A    between atoms: _311  and  _312
REMARK  127  A    between atoms: _311  and  _314
REMARK  128  A    between atoms: _314  and  _315
REMARK  129  A    between atoms: _317  and  _319
REMARK  130  A    between atoms: _319  and  _320
REMARK  131  A    between atoms: _319  and  _322
REMARK  132  A    between atoms: _322  and  _323
REMARK  133  A    between atoms: _328  and  _330
REMARK  134  A    between atoms: _330  and  _331
REMARK  135  A    between atoms: _330  and  _333
REMARK  136  A    between atoms: _333  and  _334
REMARK  137  A    between atoms: _334  and  _335
REMARK  138  A    between atoms: _340  and  _342
REMARK  139  A    between atoms: _342  and  _343
REMARK  140  A    between atoms: _342  and  _345
REMARK  141  A    between atoms: _345  and  _346
REMARK  142  A    between atoms: _348  and  _350
REMARK  143  A    between atoms: _350  and  _351
REMARK  144  A    between atoms: _350  and  _353
REMARK  145  A    between atoms: _353  and  _354
REMARK  146  A    between atoms: _360  and  _362
REMARK  147  A    between atoms: _362  and  _363
REMARK  148  A    between atoms: _362  and  _365
REMARK  149  A    between atoms: _365  and  _366
REMARK  150  A    between atoms: _368  and  _370
REMARK  151  A    between atoms: _370  and  _371
REMARK  152  A    between atoms: _370  and  _373
REMARK  153  A    between atoms: _373  and  _374
REMARK  154  A    between atoms: _384  and  _386
REMARK  155  A    between atoms: _386  and  _387
REMARK  156  A    between atoms: _386  and  _389
REMARK  157  A    between atoms: _389  and  _390
REMARK  158  A    between atoms: _393  and  _395
REMARK  159  A    between atoms: _395  and  _396
REMARK  160  A    between atoms: _395  and  _398
REMARK  161  A    between atoms: _400  and  _402
REMARK  162  A    between atoms: _402  and  _403
REMARK  163  A    between atoms: _402  and  _405
REMARK  164  A    between atoms: _405  and  _406
REMARK  165  A    between atoms: _411  and  _412
REMARK  166  A    between atoms: _414  and  _416
REMARK  167  A    between atoms: _416  and  _417
REMARK  168  A    between atoms: _416  and  _419
REMARK  169  A    between atoms: _419  and  _420
REMARK  170  A    between atoms: _420  and  _421
REMARK  171  A    between atoms: _421  and  _422
REMARK  172  A    between atoms: _422  and  _423
REMARK  173  A    between atoms: _427  and  _429
REMARK  174  A    between atoms: _429  and  _430
REMARK  175  A    between atoms: _429  and  _432
REMARK  176  A    between atoms: _432  and  _433
REMARK  177  A    between atoms: _438  and  _439
REMARK  178  A    between atoms: _441  and  _443
REMARK  179  A    between atoms: _443  and  _444
REMARK  180  A    between atoms: _443  and  _446
REMARK  181  A    between atoms: _446  and  _447
REMARK  182  A    between atoms: _450  and  _452
REMARK  183  A    between atoms: _452  and  _453
REMARK  184  A    between atoms: _452  and  _455
REMARK  185  A    between atoms: _455  and  _456
REMARK  186  A    between atoms: _459  and  _461
REMARK  187  A    between atoms: _461  and  _462
REMARK  188  A    between atoms: _461  and  _464
REMARK  189  A    between atoms: _467  and  _469
REMARK  190  A    between atoms: _469  and  _470
REMARK  191  A    between atoms: _469  and  _472
REMARK  192  A    between atoms: _472  and  _473
REMARK  193  A    between atoms: _475  and  _477
REMARK  194  A    between atoms: _477  and  _478
REMARK  195  A    between atoms: _481  and  _483
REMARK  196  A    between atoms: _483  and  _484
REMARK  197  A    between atoms: _486  and  _488
REMARK  198  A    between atoms: _488  and  _489
REMARK  199  A    between atoms: _488  and  _491
REMARK  200  A    between atoms: _491  and  _492
REMARK  201  A    between atoms: _497  and  _499
REMARK  202  A    between atoms: _499  and  _500
REMARK  203  A    between atoms: _499  and  _502
REMARK  204  A    between atoms: _502  and  _503
REMARK  205  A    between atoms: _506  and  _508
REMARK  206  A    between atoms: _508  and  _509
REMARK  207  A    between atoms: _508  and  _511
REMARK  208  A    between atoms: _511  and  _512
REMARK  209  A    between atoms: _515  and  _517
REMARK  210  A    between atoms: _517  and  _518
REMARK  211  A    between atoms: _517  and  _520
REMARK  212  A    between atoms: _520  and  _521
REMARK  213  A    between atoms: _524  and  _526
REMARK  214  A    between atoms: _526  and  _527
REMARK  215  A    between atoms: _526  and  _529
REMARK  216  A    between atoms: _529  and  _530
REMARK  217  A    between atoms: _530  and  _531
REMARK  218  A    between atoms: _536  and  _538
REMARK  219  A    between atoms: _538  and  _539
REMARK  220  A    between atoms: _538  and  _541
REMARK  221  A    between atoms: _541  and  _542
REMARK  222  A    between atoms: _545  and  _547
REMARK  223  A    between atoms: _547  and  _548
REMARK  224  A    between atoms: _547  and  _550
REMARK  225  A    between atoms: _550  and  _551
REMARK  226  A    between atoms: _551  and  _552
REMARK  227  A    between atoms: _555  and  _557
REMARK  228  A    between atoms: _557  and  _558
REMARK  229  A    between atoms: _557  and  _560
REMARK  230  A    between atoms: _560  and  _561
REMARK  231  A    between atoms: _566  and  _568
REMARK  232  A    between atoms: _568  and  _569
REMARK  233  A    between atoms: _568  and  _571
REMARK  234  A    between atoms: _571  and  _572
REMARK  235  A    between atoms: _574  and  _576
REMARK  236  A    between atoms: _576  and  _577
REMARK  237  A    between atoms: _576  and  _579
REMARK  238  A    between atoms: _579  and  _580
REMARK  239  A    between atoms: _580  and  _581
REMARK  240  A    between atoms: _586  and  _588
REMARK  241  A    between atoms: _588  and  _589
REMARK  242  A    between atoms: _588  and  _591
REMARK  243  A    between atoms: _591  and  _592
REMARK  244  A    between atoms: _597  and  _598
REMARK  245  A    between atoms: _600  and  _602
REMARK  246  A    between atoms: _602  and  _603
REMARK  247  A    between atoms: _602  and  _605
REMARK  248  A    between atoms: _605  and  _606
REMARK  249  A    between atoms: _606  and  _607
REMARK  250  A    between atoms: _607  and  _608
REMARK  251  A    between atoms: _617  and  _619
REMARK  252  A    between atoms: _619  and  _620
REMARK  253  A    between atoms: _619  and  _622
REMARK  254  A    between atoms: _622  and  _623
REMARK  255  A    between atoms: _626  and  _628
REMARK  256  A    between atoms: _628  and  _629
REMARK  257  A    between atoms: _628  and  _631
REMARK  258  A    between atoms: _631  and  _632
REMARK  259  A    between atoms: _634  and  _636
REMARK  260  A    between atoms: _636  and  _637
REMARK  261  A    between atoms: _636  and  _639
REMARK  262  A    between atoms: _639  and  _640
REMARK  263  A    between atoms: _645  and  _647
REMARK  264  A    between atoms: _647  and  _648
REMARK  265  A    between atoms: _647  and  _650
REMARK  266  A    between atoms: _650  and  _651
REMARK  267  A    between atoms: _651  and  _652
REMARK  268  A    between atoms: _652  and  _653
REMARK  269  A    between atoms: _653  and  _654
REMARK  270  A    between atoms: _658  and  _660
REMARK  271  A    between atoms: _660  and  _661
REMARK  272  A    between atoms: _660  and  _663
REMARK  273  A    between atoms: _663  and  _664
REMARK  274  A    between atoms: _667  and  _669
REMARK  275  A    between atoms: _669  and  _670
REMARK  276  A    between atoms: _669  and  _672
REMARK  277  A    between atoms: _672  and  _673
REMARK  278  A    between atoms: _676  and  _678
REMARK  279  A    between atoms: _678  and  _679
REMARK  280  A    between atoms: _678  and  _681
REMARK  281  A    between atoms: _684  and  _686
REMARK  282  A    between atoms: _686  and  _687
REMARK  283  A    between atoms: _686  and  _689
REMARK  284  A    between atoms: _689  and  _690
REMARK                            x       y       z     vdW  Elec       q    Type
REMARK                         _______ _______ _______ _____ _____    ______ ____
ROOT
ATOM      1  CB  PHE A   1      66.769  -7.685  -3.399  0.00  0.00    +0.051 C 
ENDROOT
BRANCH   1   2
ATOM      2  CG  PHE A   1      65.859  -6.625  -2.827  0.00  0.00    -0.020 A 
ATOM      3  CD2 PHE A   1      64.597  -6.962  -2.349  0.00  0.00    -0.004 A 
ATOM      4  CE2 PHE A   1      63.752  -5.982  -1.798  0.00  0.00    -0.000 A 
ATOM      5  CZ  PHE A   1      64.170  -4.673  -1.747  0.00  0.00    -0.000 A 
ATOM      6  CE1 PHE A   1      65.410  -4.332  -2.249  0.00  0.00    -0.000 A 
ATOM      7  CD1 PHE A   1      66.252  -5.306  -2.769  0.00  0.00    -0.004 A 
ENDBRANCH   1   2
BRANCH   1   8
ATOM      8  CA  PHE A   1      66.717  -9.007  -2.625  0.00  0.00    +0.137 C 
BRANCH   8   9
ATOM      9  N   PHE A   1      67.230  -8.865  -1.260  0.00  0.00    -0.239 NA
ATOM     10  H   PHE A   1      68.027  -8.217  -1.098  0.00  0.00    +0.142 HD
ENDBRANCH   8   9
BRANCH   8  11
ATOM     11  C   PHE A   1      67.384 -10.092  -3.434  0.00  0.00    +0.224 C 
ATOM     12  O   PHE A   1      66.796 -10.593  -4.395  0.00  0.00    -0.287 OA
ENDBRANCH   8  11
ENDBRANCH   1   8
TORSDOF 4
REMARK  Name = ../refined-set-2016/2o4j/2o4j_pocket.pdb
REMARK  284 active torsions:
REMARK  status: ('A' for Active; 'I' for Inactive)
REMARK    1  A    between atoms: _1  and  _3
REMARK    2  A    between atoms: _3  and  _4
REMARK    3  A    between atoms: _3  and  _6
REMARK    4  A    between atoms: _6  and  _7
REMARK    5  A    between atoms: _10  and  _12
REMARK    6  A    between atoms: _12  and  _13
REMARK    7  A    between atoms: _12  and  _15
REMARK    8  A    between atoms: _15  and  _16
REMARK    9  A    between atoms: _21  and  _22
REMARK   10  A    between atoms: _24  and  _26
REMARK   11  A    between atoms: _26  and  _27
REMARK   12  A    between atoms: _26  and  _29
REMARK   13  A    between atoms: _29  and  _30
REMARK   14  A    between atoms: _34  and  _35
REMARK   15  A    between atoms: _40  and  _42
REMARK   16  A    between atoms: _42  and  _43
REMARK   17  A    between atoms: _42  and  _45
REMARK   18  A    between atoms: _45  and  _46
REMARK   19  A    between atoms: _51  and  _52
REMARK   20  A    between atoms: _54  and  _56
REMARK   21  A    between atoms: _56  and  _57
REMARK   22  A    between atoms: _56  and  _59
REMARK   23  A    between atoms: _59  and  _60
REMARK   24  A    between atoms: _66  and  _68
REMARK   25  A    between atoms: _68  and  _69
REMARK   26  A    between atoms: _68  and  _71
REMARK   27  A    between atoms: _71  and  _72
REMARK   28  A    between atoms: _78  and  _80
REMARK   29  A    between atoms: _80  and  _81
REMARK   30  A    between atoms: _80  and  _83
REMARK   31  A    between atoms: _83  and  _84
REMARK   32  A    between atoms: _84  and  _85
REMARK   33  A    between atoms: _85  and  _86
REMARK   34  A    between atoms: _95  and  _97
REMARK   35  A    between atoms: _97  and  _98
REMARK   36  A    between atoms: _97  and  _100
REMARK   37  A    between atoms: _100  and  _101
REMARK   38  A    between atoms: _101  and  _102
REMARK   39  A    between atoms: _104  and  _106
REMARK   40  A    between atoms: _106  and  _107
REMARK   41  A    between atoms: _106  and  _109
REMARK   42  A    between atoms: _109  and  _110
REMARK   43  A    between atoms: _114  and  _115
REMARK   44  A    between atoms: _120  and  _122
REMARK   45  A    between atoms: _122  and  _123
REMARK   46  A    between atoms: _122  and  _125
REMARK   47  A    between atoms: _125  and  _126
REMARK   48  A    between atoms: _131  and  _133
REMARK   49  A    between atoms: _133  and  _134
REMARK   50  A    between atoms: _133  and  _136
REMARK   51  A    between atoms: _136  and  _137
REMARK   52  A    between atoms: _140  and  _142
REMARK   53  A    between atoms: _142  and  _143
REMARK   54  A    between atoms: _146  and  _148
REMARK   55  A    between atoms: _148  and  _149
REMARK   56  A    between atoms: _148  and  _151
REMARK   57  A    between atoms: _151  and  _152
REMARK   58  A    between atoms: _155  and  _157
REMARK   59  A    between atoms: _157  and  _158
REMARK   60  A    between atoms: _157  and  _160
REMARK   61  A    between atoms: _160  and  _161
REMARK   62  A    between atoms: _164  and  _166
REMARK   63  A    between atoms: _166  and  _167
REMARK   64  A    between atoms: _166  and  _169
REMARK   65  A    between atoms: _172  and  _174
REMARK   66  A    between atoms: _174  and  _175
REMARK   67  A    between atoms: _174  and  _177
REMARK   68  A    between atoms: _177  and  _178
REMARK   69  A    between atoms: _180  and  _182
REMARK   70  A    between atoms: _182  and  _183
REMARK   71  A    between atoms: _182  and  _185
REMARK   72  A    between atoms: _185  and  _186
REMARK   73  A    between atoms: _191  and  _192
REMARK   74  A    between atoms: _194  and  _196
REMARK   75  A    between atoms: _196  and  _197
REMARK   76  A    between atoms: _196  and  _199
REMARK   77  A    between atoms: _199  and  _200
REMARK   78  A    between atoms: _202  and  _204
REMARK   79  A    between atoms: _204  and  _205
REMARK   80  A    between atoms: _204  and  _207
REMARK   81  A    between atoms: _207  and  _208
REMARK   82  A    between atoms: _211  and  _213
REMARK   83  A    between atoms: _213  and  _214
REMARK   84  A    between atoms: _213  and  _216
REMARK   85  A    between atoms: _216  and  _217
REMARK   86  A    between atoms: _217  and  _218
REMARK   87  A    between atoms: _218  and  _219
REMARK   88  A    between atoms: _219  and  _220
REMARK   89  A    between atoms: _224  and  _226
REMARK   90  A    between atoms: _226  and  _227
REMARK   91  A    between atoms: _226  and  _229
REMARK   92  A    between atoms: _232  and  _234
REMARK   93  A    between atoms: _234  and  _235
REMARK   94  A    between atoms: _238  and  _240
REMARK   95  A    between atoms: _240  and  _241
REMARK   96  A    between atoms: _240  and  _243
REMARK   97  A    between atoms: _243  and  _244
REMARK   98  A    between atoms: _247  and  _249
REMARK   99  A    between atoms: _249  and  _250
REMARK  100  A    between atoms: _249  and  _252
REMARK  101  A    between atoms: _252  and  _253
REMARK  102  A    between atoms: _253  and  _254
REMARK  103  A    between atoms: _257  and  _259
REMARK  104  A    between atoms: _259  and  _260
REMARK  105  A    between atoms: _259  and  _262
REMARK  106  A    between atoms: _265  and  _267
REMARK  107  A    between atoms: _267  and  _268
REMARK  108  A    between atoms: _267  and  _270
REMARK  109  A    between atoms: _270  and  _271
REMARK  110  A    between atoms: _274  and  _276
REMARK  111  A    between atoms: _276  and  _277
REMARK  112  A    between atoms: _276  and  _279
REMARK  113  A    between atoms: _279  and  _280
REMARK  114  A    between atoms: _280  and  _281
REMARK  115  A    between atoms: _283  and  _285
REMARK  116  A    between atoms: _285  and  _286
REMARK  117  A    between atoms: _285  and  _288
REMARK  118  A    between atoms: _288  and  _289
REMARK  119  A    between atoms: _292  and  _294
REMARK  120  A    between atoms: _294  and  _295
REMARK  121  A    between atoms: _294  and  _297
REMARK  122  A    between atoms: _297  and  _298
REMARK  123  A    between atoms: _298  and  _299
REMARK  124  A    between atoms: _299  and  _300
REMARK  125  A    between atoms: _309  and  _311
REMARK  126  A    between atoms: _311  and  _312
REMARK  127  A    between atoms: _311  and  _314
REMARK  128  A    between atoms: _314  and  _315
REMARK  129  A    between atoms: _317  and  _319
REMARK  130  A    between atoms: _319  and  _320
REMARK  131  A    between atoms: _319  and  _322
REMARK  132  A    between atoms: _322  and  _323
REMARK  133  A    between atoms: _328  and  _330
REMARK  134  A    between atoms: _330  and  _331
REMARK  135  A    between atoms: _330  and  _333
REMARK  136  A    between atoms: _333  and  _334
REMARK  137  A    between atoms: _334  and  _335
REMARK  138  A    between atoms: _340  and  _342
REMARK  139  A    between atoms: _342  and  _343
REMARK  140  A    between atoms: _342  and  _345
REMARK  141  A    between atoms: _345  and  _346
REMARK  142  A    between atoms: _348  and  _350
REMARK  143  A    between atoms: _350  and  _351
REMARK  144  A    between atoms: _350  and  _353
REMARK  145  A    between atoms: _353  and  _354
REMARK  146  A    between atoms: _360  and  _362
REMARK  147  A    between atoms: _362  and  _363
REMARK  148  A    between atoms: _362  and  _365
REMARK  149  A    between atoms: _365  and  _366
REMARK  150  A    between atoms: _368  and  _370
REMARK  151  A    between atoms: _370  and  _371
REMARK  152  A    between atoms: _370  and  _373
REMARK  153  A    between atoms: _373  and  _374
REMARK  154  A    between atoms: _384  and  _386
REMARK  155  A    between atoms: _386  and  _387
REMARK  156  A    between atoms: _386  and  _389
REMARK  157  A    between atoms: _389  and  _390
REMARK  158  A    between atoms: _393  and  _395
REMARK  159  A    between atoms: _395  and  _396
REMARK  160  A    between atoms: _395  and  _398
REMARK  161  A    between atoms: _400  and  _402
REMARK  162  A    between atoms: _402  and  _403
REMARK  163  A    between atoms: _402  and  _405
REMARK  164  A    between atoms: _405  and  _406
REMARK  165  A    between atoms: _411  and  _412
REMARK  166  A    between atoms: _414  and  _416
REMARK  167  A    between atoms: _416  and  _417
REMARK  168  A    between atoms: _416  and  _419
REMARK  169  A    between atoms: _419  and  _420
REMARK  170  A    between atoms: _420  and  _421
REMARK  171  A    between atoms: _421  and  _422
REMARK  172  A    between atoms: _422  and  _423
REMARK  173  A    between atoms: _427  and  _429
REMARK  174  A    between atoms: _429  and  _430
REMARK  175  A    between atoms: _429  and  _432
REMARK  176  A    between atoms: _432  and  _433
REMARK  177  A    between atoms: _438  and  _439
REMARK  178  A    between atoms: _441  and  _443
REMARK  179  A    between atoms: _443  and  _444
REMARK  180  A    between atoms: _443  and  _446
REMARK  181  A    between atoms: _446  and  _447
REMARK  182  A    between atoms: _450  and  _452
REMARK  183  A    between atoms: _452  and  _453
REMARK  184  A    between atoms: _452  and  _455
REMARK  185  A    between atoms: _455  and  _456
REMARK  186  A    between atoms: _459  and  _461
REMARK  187  A    between atoms: _461  and  _462
REMARK  188  A    between atoms: _461  and  _464
REMARK  189  A    between atoms: _467  and  _469
REMARK  190  A    between atoms: _469  and  _470
REMARK  191  A    between atoms: _469  and  _472
REMARK  192  A    between atoms: _472  and  _473
REMARK  193  A    between atoms: _475  and  _477
REMARK  194  A    between atoms: _477  and  _478
REMARK  195  A    between atoms: _481  and  _483
REMARK  196  A    between atoms: _483  and  _484
REMARK  197  A    between atoms: _486  and  _488
REMARK  198  A    between atoms: _488  and  _489
REMARK  199  A    between atoms: _488  and  _491
REMARK  200  A    between atoms: _491  and  _492
REMARK  201  A    between atoms: _497  and  _499
REMARK  202  A    between atoms: _499  and  _500
REMARK  203  A    between atoms: _499  and  _502
REMARK  204  A    between atoms: _502  and  _503
REMARK  205  A    between atoms: _506  and  _508
REMARK  206  A    between atoms: _508  and  _509
REMARK  207  A    between atoms: _508  and  _511
REMARK  208  A    between atoms: _511  and  _512
REMARK  209  A    between atoms: _515  and  _517
REMARK  210  A    between atoms: _517  and  _518
REMARK  211  A    between atoms: _517  and  _520
REMARK  212  A    between atoms: _520  and  _521
REMARK  213  A    between atoms: _524  and  _526
REMARK  214  A    between atoms: _526  and  _527
REMARK  215  A    between atoms: _526  and  _529
REMARK  216  A    between atoms: _529  and  _530
REMARK  217  A    between atoms: _530  and  _531
REMARK  218  A    between atoms: _536  and  _538
REMARK  219  A    between atoms: _538  and  _539
REMARK  220  A    between atoms: _538  and  _541
REMARK  221  A    between atoms: _541  and  _542
REMARK  222  A    between atoms: _545  and  _547
REMARK  223  A    between atoms: _547  and  _548
REMARK  224  A    between atoms: _547  and  _550
REMARK  225  A    between atoms: _550  and  _551
REMARK  226  A    between atoms: _551  and  _552
REMARK  227  A    between atoms: _555  and  _557
REMARK  228  A    between atoms: _557  and  _558
REMARK  229  A    between atoms: _557  and  _560
REMARK  230  A    between atoms: _560  and  _561
REMARK  231  A    between atoms: _566  and  _568
REMARK  232  A    between atoms: _568  and  _569
REMARK  233  A    between atoms: _568  and  _571
REMARK  234  A    between atoms: _571  and  _572
REMARK  235  A    between atoms: _574  and  _576
REMARK  236  A    between atoms: _576  and  _577
REMARK  237  A    between atoms: _576  and  _579
REMARK  238  A    between atoms: _579  and  _580
REMARK  239  A    between atoms: _580  and  _581
REMARK  240  A    between atoms: _586  and  _588
REMARK  241  A    between atoms: _588  and  _589
REMARK  242  A    between atoms: _588  and  _591
REMARK  243  A    between atoms: _591  and  _592
REMARK  244  A    between atoms: _597  and  _598
REMARK  245  A    between atoms: _600  and  _602
REMARK  246  A    between atoms: _602  and  _603
REMARK  247  A    between atoms: _602  and  _605
REMARK  248  A    between atoms: _605  and  _606
REMARK  249  A    between atoms: _606  and  _607
REMARK  250  A    between atoms: _607  and  _608
REMARK  251  A    between atoms: _617  and  _619
REMARK  252  A    between atoms: _619  and  _620
REMARK  253  A    between atoms: _619  and  _622
REMARK  254  A    between atoms: _622  and  _623
REMARK  255  A    between atoms: _626  and  _628
REMARK  256  A    between atoms: _628  and  _629
REMARK  257  A    between atoms: _628  and  _631
REMARK  258  A    between atoms: _631  and  _632
REMARK  259  A    between atoms: _634  and  _636
REMARK  260  A    between atoms: _636  and  _637
REMARK  261  A    between atoms: _636  and  _639
REMARK  262  A    between atoms: _639  and  _640
REMARK  263  A    between atoms: _645  and  _647
REMARK  264  A    between atoms: _647  and  _648
REMARK  265  A    between atoms: _647  and  _650
REMARK  266  A    between atoms: _650  and  _651
REMARK  267  A    between atoms: _651  and  _652
REMARK  268  A    between atoms: _652  and  _653
REMARK  269  A    between atoms: _653  and  _654
REMARK  270  A    between atoms: _658  and  _660
REMARK  271  A    between atoms: _660  and  _661
REMARK  272  A    between atoms: _660  and  _663
REMARK  273  A    between atoms: _663  and  _664
REMARK  274  A    between atoms: _667  and  _669
REMARK  275  A    between atoms: _669  and  _670
REMARK  276  A    between atoms: _669  and  _672
REMARK  277  A    between atoms: _672  and  _673
REMARK  278  A    between atoms: _676  and  _678
REMARK  279  A    between atoms: _678  and  _679
REMARK  280  A    between atoms: _678  and  _681
REMARK  281  A    between atoms: _684  and  _686
REMARK  282  A    between atoms: _686  and  _687
REMARK  283  A    between atoms: _686  and  _689
REMARK  284  A    between atoms: _689  and  _690
REMARK                            x       y       z     vdW  Elec       q    Type
REMARK                         _______ _______ _______ _____ _____    ______ ____
ROOT
ATOM      1  O   HOH     1      54.818   6.397   4.907  0.00  0.00    +0.000 OA
ENDROOT
TORSDOF 0
REMARK  Name = ../refined-set-2016/2o4j/2o4j_pocket.pdb
REMARK  284 active torsions:
REMARK  status: ('A' for Active; 'I' for Inactive)
REMARK    1  A    between atoms: _1  and  _3
REMARK    2  A    between atoms: _3  and  _4
REMARK    3  A    between atoms: _3  and  _6
REMARK    4  A    between atoms: _6  and  _7
REMARK    5  A    between atoms: _10  and  _12
REMARK    6  A    between atoms: _12  and  _13
REMARK    7  A    between atoms: _12  and  _15
REMARK    8  A    between atoms: _15  and  _16
REMARK    9  A    between atoms: _21  and  _22
REMARK   10  A    between atoms: _24  and  _26
REMARK   11  A    between atoms: _26  and  _27
REMARK   12  A    between atoms: _26  and  _29
REMARK   13  A    between atoms: _29  and  _30
REMARK   14  A    between atoms: _34  and  _35
REMARK   15  A    between atoms: _40  and  _42
REMARK   16  A    between atoms: _42  and  _43
REMARK   17  A    between atoms: _42  and  _45
REMARK   18  A    between atoms: _45  and  _46
REMARK   19  A    between atoms: _51  and  _52
REMARK   20  A    between atoms: _54  and  _56
REMARK   21  A    between atoms: _56  and  _57
REMARK   22  A    between atoms: _56  and  _59
REMARK   23  A    between atoms: _59  and  _60
REMARK   24  A    between atoms: _66  and  _68
REMARK   25  A    between atoms: _68  and  _69
REMARK   26  A    between atoms: _68  and  _71
REMARK   27  A    between atoms: _71  and  _72
REMARK   28  A    between atoms: _78  and  _80
REMARK   29  A    between atoms: _80  and  _81
REMARK   30  A    between atoms: _80  and  _83
REMARK   31  A    between atoms: _83  and  _84
REMARK   32  A    between atoms: _84  and  _85
REMARK   33  A    between atoms: _85  and  _86
REMARK   34  A    between atoms: _95  and  _97
REMARK   35  A    between atoms: _97  and  _98
REMARK   36  A    between atoms: _97  and  _100
REMARK   37  A    between atoms: _100  and  _101
REMARK   38  A    between atoms: _101  and  _102
REMARK   39  A    between atoms: _104  and  _106
REMARK   40  A    between atoms: _106  and  _107
REMARK   41  A    between atoms: _106  and  _109
REMARK   42  A    between atoms: _109  and  _110
REMARK   43  A    between atoms: _114  and  _115
REMARK   44  A    between atoms: _120  and  _122
REMARK   45  A    between atoms: _122  and  _123
REMARK   46  A    between atoms: _122  and  _125
REMARK   47  A    between atoms: _125  and  _126
REMARK   48  A    between atoms: _131  and  _133
REMARK   49  A    between atoms: _133  and  _134
REMARK   50  A    between atoms: _133  and  _136
REMARK   51  A    between atoms: _136  and  _137
REMARK   52  A    between atoms: _140  and  _142
REMARK   53  A    between atoms: _142  and  _143
REMARK   54  A    between atoms: _146  and  _148
REMARK   55  A    between atoms: _148  and  _149
REMARK   56  A    between atoms: _148  and  _151
REMARK   57  A    between atoms: _151  and  _152
REMARK   58  A    between atoms: _155  and  _157
REMARK   59  A    between atoms: _157  and  _158
REMARK   60  A    between atoms: _157  and  _160
REMARK   61  A    between atoms: _160  and  _161
REMARK   62  A    between atoms: _164  and  _166
REMARK   63  A    between atoms: _166  and  _167
REMARK   64  A    between atoms: _166  and  _169
REMARK   65  A    between atoms: _172  and  _174
REMARK   66  A    between atoms: _174  and  _175
REMARK   67  A    between atoms: _174  and  _177
REMARK   68  A    between atoms: _177  and  _178
REMARK   69  A    between atoms: _180  and  _182
REMARK   70  A    between atoms: _182  and  _183
REMARK   71  A    between atoms: _182  and  _185
REMARK   72  A    between atoms: _185  and  _186
REMARK   73  A    between atoms: _191  and  _192
REMARK   74  A    between atoms: _194  and  _196
REMARK   75  A    between atoms: _196  and  _197
REMARK   76  A    between atoms: _196  and  _199
REMARK   77  A    between atoms: _199  and  _200
REMARK   78  A    between atoms: _202  and  _204
REMARK   79  A    between atoms: _204  and  _205
REMARK   80  A    between atoms: _204  and  _207
REMARK   81  A    between atoms: _207  and  _208
REMARK   82  A    between atoms: _211  and  _213
REMARK   83  A    between atoms: _213  and  _214
REMARK   84  A    between atoms: _213  and  _216
REMARK   85  A    between atoms: _216  and  _217
REMARK   86  A    between atoms: _217  and  _218
REMARK   87  A    between atoms: _218  and  _219
REMARK   88  A    between atoms: _219  and  _220
REMARK   89  A    between atoms: _224  and  _226
REMARK   90  A    between atoms: _226  and  _227
REMARK   91  A    between atoms: _226  and  _229
REMARK   92  A    between atoms: _232  and  _234
REMARK   93  A    between atoms: _234  and  _235
REMARK   94  A    between atoms: _238  and  _240
REMARK   95  A    between atoms: _240  and  _241
REMARK   96  A    between atoms: _240  and  _243
REMARK   97  A    between atoms: _243  and  _244
REMARK   98  A    between atoms: _247  and  _249
REMARK   99  A    between atoms: _249  and  _250
REMARK  100  A    between atoms: _249  and  _252
REMARK  101  A    between atoms: _252  and  _253
REMARK  102  A    between atoms: _253  and  _254
REMARK  103  A    between atoms: _257  and  _259
REMARK  104  A    between atoms: _259  and  _260
REMARK  105  A    between atoms: _259  and  _262
REMARK  106  A    between atoms: _265  and  _267
REMARK  107  A    between atoms: _267  and  _268
REMARK  108  A    between atoms: _267  and  _270
REMARK  109  A    between atoms: _270  and  _271
REMARK  110  A    between atoms: _274  and  _276
REMARK  111  A    between atoms: _276  and  _277
REMARK  112  A    between atoms: _276  and  _279
REMARK  113  A    between atoms: _279  and  _280
REMARK  114  A    between atoms: _280  and  _281
REMARK  115  A    between atoms: _283  and  _285
REMARK  116  A    between atoms: _285  and  _286
REMARK  117  A    between atoms: _285  and  _288
REMARK  118  A    between atoms: _288  and  _289
REMARK  119  A    between atoms: _292  and  _294
REMARK  120  A    between atoms: _294  and  _295
REMARK  121  A    between atoms: _294  and  _297
REMARK  122  A    between atoms: _297  and  _298
REMARK  123  A    between atoms: _298  and  _299
REMARK  124  A    between atoms: _299  and  _300
REMARK  125  A    between atoms: _309  and  _311
REMARK  126  A    between atoms: _311  and  _312
REMARK  127  A    between atoms: _311  and  _314
REMARK  128  A    between atoms: _314  and  _315
REMARK  129  A    between atoms: _317  and  _319
REMARK  130  A    between atoms: _319  and  _320
REMARK  131  A    between atoms: _319  and  _322
REMARK  132  A    between atoms: _322  and  _323
REMARK  133  A    between atoms: _328  and  _330
REMARK  134  A    between atoms: _330  and  _331
REMARK  135  A    between atoms: _330  and  _333
REMARK  136  A    between atoms: _333  and  _334
REMARK  137  A    between atoms: _334  and  _335
REMARK  138  A    between atoms: _340  and  _342
REMARK  139  A    between atoms: _342  and  _343
REMARK  140  A    between atoms: _342  and  _345
REMARK  141  A    between atoms: _345  and  _346
REMARK  142  A    between atoms: _348  and  _350
REMARK  143  A    between atoms: _350  and  _351
REMARK  144  A    between atoms: _350  and  _353
REMARK  145  A    between atoms: _353  and  _354
REMARK  146  A    between atoms: _360  and  _362
REMARK  147  A    between atoms: _362  and  _363
REMARK  148  A    between atoms: _362  and  _365
REMARK  149  A    between atoms: _365  and  _366
REMARK  150  A    between atoms: _368  and  _370
REMARK  151  A    between atoms: _370  and  _371
REMARK  152  A    between atoms: _370  and  _373
REMARK  153  A    between atoms: _373  and  _374
REMARK  154  A    between atoms: _384  and  _386
REMARK  155  A    between atoms: _386  and  _387
REMARK  156  A    between atoms: _386  and  _389
REMARK  157  A    between atoms: _389  and  _390
REMARK  158  A    between atoms: _393  and  _395
REMARK  159  A    between atoms: _395  and  _396
REMARK  160  A    between atoms: _395  and  _398
REMARK  161  A    between atoms: _400  and  _402
REMARK  162  A    between atoms: _402  and  _403
REMARK  163  A    between atoms: _402  and  _405
REMARK  164  A    between atoms: _405  and  _406
REMARK  165  A    between atoms: _411  and  _412
REMARK  166  A    between atoms: _414  and  _416
REMARK  167  A    between atoms: _416  and  _417
REMARK  168  A    between atoms: _416  and  _419
REMARK  169  A    between atoms: _419  and  _420
REMARK  170  A    between atoms: _420  and  _421
REMARK  171  A    between atoms: _421  and  _422
REMARK  172  A    between atoms: _422  and  _423
REMARK  173  A    between atoms: _427  and  _429
REMARK  174  A    between atoms: _429  and  _430
REMARK  175  A    between atoms: _429  and  _432
REMARK  176  A    between atoms: _432  and  _433
REMARK  177  A    between atoms: _438  and  _439
REMARK  178  A    between atoms: _441  and  _443
REMARK  179  A    between atoms: _443  and  _444
REMARK  180  A    between atoms: _443  and  _446
REMARK  181  A    between atoms: _446  and  _447
REMARK  182  A    between atoms: _450  and  _452
REMARK  183  A    between atoms: _452  and  _453
REMARK  184  A    between atoms: _452  and  _455
REMARK  185  A    between atoms: _455  and  _456
REMARK  186  A    between atoms: _459  and  _461
REMARK  187  A    between atoms: _461  and  _462
REMARK  188  A    between atoms: _461  and  _464
REMARK  189  A    between atoms: _467  and  _469
REMARK  190  A    between atoms: _469  and  _470
REMARK  191  A    between atoms: _469  and  _472
REMARK  192  A    between atoms: _472  and  _473
REMARK  193  A    between atoms: _475  and  _477
REMARK  194  A    between atoms: _477  and  _478
REMARK  195  A    between atoms: _481  and  _483
REMARK  196  A    between atoms: _483  and  _484
REMARK  197  A    between atoms: _486  and  _488
REMARK  198  A    between atoms: _488  and  _489
REMARK  199  A    between atoms: _488  and  _491
REMARK  200  A    between atoms: _491  and  _492
REMARK  201  A    between atoms: _497  and  _499
REMARK  202  A    between atoms: _499  and  _500
REMARK  203  A    between atoms: _499  and  _502
REMARK  204  A    between atoms: _502  and  _503
REMARK  205  A    between atoms: _506  and  _508
REMARK  206  A    between atoms: _508  and  _509
REMARK  207  A    between atoms: _508  and  _511
REMARK  208  A    between atoms: _511  and  _512
REMARK  209  A    between atoms: _515  and  _517
REMARK  210  A    between atoms: _517  and  _518
REMARK  211  A    between atoms: _517  and  _520
REMARK  212  A    between atoms: _520  and  _521
REMARK  213  A    between atoms: _524  and  _526
REMARK  214  A    between atoms: _526  and  _527
REMARK  215  A    between atoms: _526  and  _529
REMARK  216  A    between atoms: _529  and  _530
REMARK  217  A    between atoms: _530  and  _531
REMARK  218  A    between atoms: _536  and  _538
REMARK  219  A    between atoms: _538  and  _539
REMARK  220  A    between atoms: _538  and  _541
REMARK  221  A    between atoms: _541  and  _542
REMARK  222  A    between atoms: _545  and  _547
REMARK  223  A    between atoms: _547  and  _548
REMARK  224  A    between atoms: _547  and  _550
REMARK  225  A    between atoms: _550  and  _551
REMARK  226  A    between atoms: _551  and  _552
REMARK  227  A    between atoms: _555  and  _557
REMARK  228  A    between atoms: _557  and  _558
REMARK  229  A    between atoms: _557  and  _560
REMARK  230  A    between atoms: _560  and  _561
REMARK  231  A    between atoms: _566  and  _568
REMARK  232  A    between atoms: _568  and  _569
REMARK  233  A    between atoms: _568  and  _571
REMARK  234  A    between atoms: _571  and  _572
REMARK  235  A    between atoms: _574  and  _576
REMARK  236  A    between atoms: _576  and  _577
REMARK  237  A    between atoms: _576  and  _579
REMARK  238  A    between atoms: _579  and  _580
REMARK  239  A    between atoms: _580  and  _581
REMARK  240  A    between atoms: _586  and  _588
REMARK  241  A    between atoms: _588  and  _589
REMARK  242  A    between atoms: _588  and  _591
REMARK  243  A    between atoms: _591  and  _592
REMARK  244  A    between atoms: _597  and  _598
REMARK  245  A    between atoms: _600  and  _602
REMARK  246  A    between atoms: _602  and  _603
REMARK  247  A    between atoms: _602  and  _605
REMARK  248  A    between atoms: _605  and  _606
REMARK  249  A    between atoms: _606  and  _607
REMARK  250  A    between atoms: _607  and  _608
REMARK  251  A    between atoms: _617  and  _619
REMARK  252  A    between atoms: _619  and  _620
REMARK  253  A    between atoms: _619  and  _622
REMARK  254  A    between atoms: _622  and  _623
REMARK  255  A    between atoms: _626  and  _628
REMARK  256  A    between atoms: _628  and  _629
REMARK  257  A    between atoms: _628  and  _631
REMARK  258  A    between atoms: _631  and  _632
REMARK  259  A    between atoms: _634  and  _636
REMARK  260  A    between atoms: _636  and  _637
REMARK  261  A    between atoms: _636  and  _639
REMARK  262  A    between atoms: _639  and  _640
REMARK  263  A    between atoms: _645  and  _647
REMARK  264  A    between atoms: _647  and  _648
REMARK  265  A    between atoms: _647  and  _650
REMARK  266  A    between atoms: _650  and  _651
REMARK  267  A    between atoms: _651  and  _652
REMARK  268  A    between atoms: _652  and  _653
REMARK  269  A    between atoms: _653  and  _654
REMARK  270  A    between atoms: _658  and  _660
REMARK  271  A    between atoms: _660  and  _661
REMARK  272  A    between atoms: _660  and  _663
REMARK  273  A    between atoms: _663  and  _664
REMARK  274  A    between atoms: _667  and  _669
REMARK  275  A    between atoms: _669  and  _670
REMARK  276  A    between atoms: _669  and  _672
REMARK  277  A    between atoms: _672  and  _673
REMARK  278  A    between atoms: _676  and  _678
REMARK  279  A    between atoms: _678  and  _679
REMARK  280  A    between atoms: _678  and  _681
REMARK  281  A    between atoms: _684  and  _686
REMARK  282  A    between atoms: _686  and  _687
REMARK  283  A    between atoms: _686  and  _689
REMARK  284  A    between atoms: _689  and  _690
REMARK                            x       y       z     vdW  Elec       q    Type
REMARK                         _______ _______ _______ _____ _____    ______ ____
ROOT
ATOM      1  O   HOH     1      57.235   1.215   6.995  0.00  0.00    +0.000 OA
ENDROOT
TORSDOF 0
REMARK  Name = ../refined-set-2016/2o4j/2o4j_pocket.pdb
REMARK  284 active torsions:
REMARK  status: ('A' for Active; 'I' for Inactive)
REMARK    1  A    between atoms: _1  and  _3
REMARK    2  A    between atoms: _3  and  _4
REMARK    3  A    between atoms: _3  and  _6
REMARK    4  A    between atoms: _6  and  _7
REMARK    5  A    between atoms: _10  and  _12
REMARK    6  A    between atoms: _12  and  _13
REMARK    7  A    between atoms: _12  and  _15
REMARK    8  A    between atoms: _15  and  _16
REMARK    9  A    between atoms: _21  and  _22
REMARK   10  A    between atoms: _24  and  _26
REMARK   11  A    between atoms: _26  and  _27
REMARK   12  A    between atoms: _26  and  _29
REMARK   13  A    between atoms: _29  and  _30
REMARK   14  A    between atoms: _34  and  _35
REMARK   15  A    between atoms: _40  and  _42
REMARK   16  A    between atoms: _42  and  _43
REMARK   17  A    between atoms: _42  and  _45
REMARK   18  A    between atoms: _45  and  _46
REMARK   19  A    between atoms: _51  and  _52
REMARK   20  A    between atoms: _54  and  _56
REMARK   21  A    between atoms: _56  and  _57
REMARK   22  A    between atoms: _56  and  _59
REMARK   23  A    between atoms: _59  and  _60
REMARK   24  A    between atoms: _66  and  _68
REMARK   25  A    between atoms: _68  and  _69
REMARK   26  A    between atoms: _68  and  _71
REMARK   27  A    between atoms: _71  and  _72
REMARK   28  A    between atoms: _78  and  _80
REMARK   29  A    between atoms: _80  and  _81
REMARK   30  A    between atoms: _80  and  _83
REMARK   31  A    between atoms: _83  and  _84
REMARK   32  A    between atoms: _84  and  _85
REMARK   33  A    between atoms: _85  and  _86
REMARK   34  A    between atoms: _95  and  _97
REMARK   35  A    between atoms: _97  and  _98
REMARK   36  A    between atoms: _97  and  _100
REMARK   37  A    between atoms: _100  and  _101
REMARK   38  A    between atoms: _101  and  _102
REMARK   39  A    between atoms: _104  and  _106
REMARK   40  A    between atoms: _106  and  _107
REMARK   41  A    between atoms: _106  and  _109
REMARK   42  A    between atoms: _109  and  _110
REMARK   43  A    between atoms: _114  and  _115
REMARK   44  A    between atoms: _120  and  _122
REMARK   45  A    between atoms: _122  and  _123
REMARK   46  A    between atoms: _122  and  _125
REMARK   47  A    between atoms: _125  and  _126
REMARK   48  A    between atoms: _131  and  _133
REMARK   49  A    between atoms: _133  and  _134
REMARK   50  A    between atoms: _133  and  _136
REMARK   51  A    between atoms: _136  and  _137
REMARK   52  A    between atoms: _140  and  _142
REMARK   53  A    between atoms: _142  and  _143
REMARK   54  A    between atoms: _146  and  _148
REMARK   55  A    between atoms: _148  and  _149
REMARK   56  A    between atoms: _148  and  _151
REMARK   57  A    between atoms: _151  and  _152
REMARK   58  A    between atoms: _155  and  _157
REMARK   59  A    between atoms: _157  and  _158
REMARK   60  A    between atoms: _157  and  _160
REMARK   61  A    between atoms: _160  and  _161
REMARK   62  A    between atoms: _164  and  _166
REMARK   63  A    between atoms: _166  and  _167
REMARK   64  A    between atoms: _166  and  _169
REMARK   65  A    between atoms: _172  and  _174
REMARK   66  A    between atoms: _174  and  _175
REMARK   67  A    between atoms: _174  and  _177
REMARK   68  A    between atoms: _177  and  _178
REMARK   69  A    between atoms: _180  and  _182
REMARK   70  A    between atoms: _182  and  _183
REMARK   71  A    between atoms: _182  and  _185
REMARK   72  A    between atoms: _185  and  _186
REMARK   73  A    between atoms: _191  and  _192
REMARK   74  A    between atoms: _194  and  _196
REMARK   75  A    between atoms: _196  and  _197
REMARK   76  A    between atoms: _196  and  _199
REMARK   77  A    between atoms: _199  and  _200
REMARK   78  A    between atoms: _202  and  _204
REMARK   79  A    between atoms: _204  and  _205
REMARK   80  A    between atoms: _204  and  _207
REMARK   81  A    between atoms: _207  and  _208
REMARK   82  A    between atoms: _211  and  _213
REMARK   83  A    between atoms: _213  and  _214
REMARK   84  A    between atoms: _213  and  _216
REMARK   85  A    between atoms: _216  and  _217
REMARK   86  A    between atoms: _217  and  _218
REMARK   87  A    between atoms: _218  and  _219
REMARK   88  A    between atoms: _219  and  _220
REMARK   89  A    between atoms: _224  and  _226
REMARK   90  A    between atoms: _226  and  _227
REMARK   91  A    between atoms: _226  and  _229
REMARK   92  A    between atoms: _232  and  _234
REMARK   93  A    between atoms: _234  and  _235
REMARK   94  A    between atoms: _238  and  _240
REMARK   95  A    between atoms: _240  and  _241
REMARK   96  A    between atoms: _240  and  _243
REMARK   97  A    between atoms: _243  and  _244
REMARK   98  A    between atoms: _247  and  _249
REMARK   99  A    between atoms: _249  and  _250
REMARK  100  A    between atoms: _249  and  _252
REMARK  101  A    between atoms: _252  and  _253
REMARK  102  A    between atoms: _253  and  _254
REMARK  103  A    between atoms: _257  and  _259
REMARK  104  A    between atoms: _259  and  _260
REMARK  105  A    between atoms: _259  and  _262
REMARK  106  A    between atoms: _265  and  _267
REMARK  107  A    between atoms: _267  and  _268
REMARK  108  A    between atoms: _267  and  _270
REMARK  109  A    between atoms: _270  and  _271
REMARK  110  A    between atoms: _274  and  _276
REMARK  111  A    between atoms: _276  and  _277
REMARK  112  A    between atoms: _276  and  _279
REMARK  113  A    between atoms: _279  and  _280
REMARK  114  A    between atoms: _280  and  _281
REMARK  115  A    between atoms: _283  and  _285
REMARK  116  A    between atoms: _285  and  _286
REMARK  117  A    between atoms: _285  and  _288
REMARK  118  A    between atoms: _288  and  _289
REMARK  119  A    between atoms: _292  and  _294
REMARK  120  A    between atoms: _294  and  _295
REMARK  121  A    between atoms: _294  and  _297
REMARK  122  A    between atoms: _297  and  _298
REMARK  123  A    between atoms: _298  and  _299
REMARK  124  A    between atoms: _299  and  _300
REMARK  125  A    between atoms: _309  and  _311
REMARK  126  A    between atoms: _311  and  _312
REMARK  127  A    between atoms: _311  and  _314
REMARK  128  A    between atoms: _314  and  _315
REMARK  129  A    between atoms: _317  and  _319
REMARK  130  A    between atoms: _319  and  _320
REMARK  131  A    between atoms: _319  and  _322
REMARK  132  A    between atoms: _322  and  _323
REMARK  133  A    between atoms: _328  and  _330
REMARK  134  A    between atoms: _330  and  _331
REMARK  135  A    between atoms: _330  and  _333
REMARK  136  A    between atoms: _333  and  _334
REMARK  137  A    between atoms: _334  and  _335
REMARK  138  A    between atoms: _340  and  _342
REMARK  139  A    between atoms: _342  and  _343
REMARK  140  A    between atoms: _342  and  _345
REMARK  141  A    between atoms: _345  and  _346
REMARK  142  A    between atoms: _348  and  _350
REMARK  143  A    between atoms: _350  and  _351
REMARK  144  A    between atoms: _350  and  _353
REMARK  145  A    between atoms: _353  and  _354
REMARK  146  A    between atoms: _360  and  _362
REMARK  147  A    between atoms: _362  and  _363
REMARK  148  A    between atoms: _362  and  _365
REMARK  149  A    between atoms: _365  and  _366
REMARK  150  A    between atoms: _368  and  _370
REMARK  151  A    between atoms: _370  and  _371
REMARK  152  A    between atoms: _370  and  _373
REMARK  153  A    between atoms: _373  and  _374
REMARK  154  A    between atoms: _384  and  _386
REMARK  155  A    between atoms: _386  and  _387
REMARK  156  A    between atoms: _386  and  _389
REMARK  157  A    between atoms: _389  and  _390
REMARK  158  A    between atoms: _393  and  _395
REMARK  159  A    between atoms: _395  and  _396
REMARK  160  A    between atoms: _395  and  _398
REMARK  161  A    between atoms: _400  and  _402
REMARK  162  A    between atoms: _402  and  _403
REMARK  163  A    between atoms: _402  and  _405
REMARK  164  A    between atoms: _405  and  _406
REMARK  165  A    between atoms: _411  and  _412
REMARK  166  A    between atoms: _414  and  _416
REMARK  167  A    between atoms: _416  and  _417
REMARK  168  A    between atoms: _416  and  _419
REMARK  169  A    between atoms: _419  and  _420
REMARK  170  A    between atoms: _420  and  _421
REMARK  171  A    between atoms: _421  and  _422
REMARK  172  A    between atoms: _422  and  _423
REMARK  173  A    between atoms: _427  and  _429
REMARK  174  A    between atoms: _429  and  _430
REMARK  175  A    between atoms: _429  and  _432
REMARK  176  A    between atoms: _432  and  _433
REMARK  177  A    between atoms: _438  and  _439
REMARK  178  A    between atoms: _441  and  _443
REMARK  179  A    between atoms: _443  and  _444
REMARK  180  A    between atoms: _443  and  _446
REMARK  181  A    between atoms: _446  and  _447
REMARK  182  A    between atoms: _450  and  _452
REMARK  183  A    between atoms: _452  and  _453
REMARK  184  A    between atoms: _452  and  _455
REMARK  185  A    between atoms: _455  and  _456
REMARK  186  A    between atoms: _459  and  _461
REMARK  187  A    between atoms: _461  and  _462
REMARK  188  A    between atoms: _461  and  _464
REMARK  189  A    between atoms: _467  and  _469
REMARK  190  A    between atoms: _469  and  _470
REMARK  191  A    between atoms: _469  and  _472
REMARK  192  A    between atoms: _472  and  _473
REMARK  193  A    between atoms: _475  and  _477
REMARK  194  A    between atoms: _477  and  _478
REMARK  195  A    between atoms: _481  and  _483
REMARK  196  A    between atoms: _483  and  _484
REMARK  197  A    between atoms: _486  and  _488
REMARK  198  A    between atoms: _488  and  _489
REMARK  199  A    between atoms: _488  and  _491
REMARK  200  A    between atoms: _491  and  _492
REMARK  201  A    between atoms: _497  and  _499
REMARK  202  A    between atoms: _499  and  _500
REMARK  203  A    between atoms: _499  and  _502
REMARK  204  A    between atoms: _502  and  _503
REMARK  205  A    between atoms: _506  and  _508
REMARK  206  A    between atoms: _508  and  _509
REMARK  207  A    between atoms: _508  and  _511
REMARK  208  A    between atoms: _511  and  _512
REMARK  209  A    between atoms: _515  and  _517
REMARK  210  A    between atoms: _517  and  _518
REMARK  211  A    between atoms: _517  and  _520
REMARK  212  A    between atoms: _520  and  _521
REMARK  213  A    between atoms: _524  and  _526
REMARK  214  A    between atoms: _526  and  _527
REMARK  215  A    between atoms: _526  and  _529
REMARK  216  A    between atoms: _529  and  _530
REMARK  217  A    between atoms: _530  and  _531
REMARK  218  A    between atoms: _536  and  _538
REMARK  219  A    between atoms: _538  and  _539
REMARK  220  A    between atoms: _538  and  _541
REMARK  221  A    between atoms: _541  and  _542
REMARK  222  A    between atoms: _545  and  _547
REMARK  223  A    between atoms: _547  and  _548
REMARK  224  A    between atoms: _547  and  _550
REMARK  225  A    between atoms: _550  and  _551
REMARK  226  A    between atoms: _551  and  _552
REMARK  227  A    between atoms: _555  and  _557
REMARK  228  A    between atoms: _557  and  _558
REMARK  229  A    between atoms: _557  and  _560
REMARK  230  A    between atoms: _560  and  _561
REMARK  231  A    between atoms: _566  and  _568
REMARK  232  A    between atoms: _568  and  _569
REMARK  233  A    between atoms: _568  and  _571
REMARK  234  A    between atoms: _571  and  _572
REMARK  235  A    between atoms: _574  and  _576
REMARK  236  A    between atoms: _576  and  _577
REMARK  237  A    between atoms: _576  and  _579
REMARK  238  A    between atoms: _579  and  _580
REMARK  239  A    between atoms: _580  and  _581
REMARK  240  A    between atoms: _586  and  _588
REMARK  241  A    between atoms: _588  and  _589
REMARK  242  A    between atoms: _588  and  _591
REMARK  243  A    between atoms: _591  and  _592
REMARK  244  A    between atoms: _597  and  _598
REMARK  245  A    between atoms: _600  and  _602
REMARK  246  A    between atoms: _602  and  _603
REMARK  247  A    between atoms: _602  and  _605
REMARK  248  A    between atoms: _605  and  _606
REMARK  249  A    between atoms: _606  and  _607
REMARK  250  A    between atoms: _607  and  _608
REMARK  251  A    between atoms: _617  and  _619
REMARK  252  A    between atoms: _619  and  _620
REMARK  253  A    between atoms: _619  and  _622
REMARK  254  A    between atoms: _622  and  _623
REMARK  255  A    between atoms: _626  and  _628
REMARK  256  A    between atoms: _628  and  _629
REMARK  257  A    between atoms: _628  and  _631
REMARK  258  A    between atoms: _631  and  _632
REMARK  259  A    between atoms: _634  and  _636
REMARK  260  A    between atoms: _636  and  _637
REMARK  261  A    between atoms: _636  and  _639
REMARK  262  A    between atoms: _639  and  _640
REMARK  263  A    between atoms: _645  and  _647
REMARK  264  A    between atoms: _647  and  _648
REMARK  265  A    between atoms: _647  and  _650
REMARK  266  A    between atoms: _650  and  _651
REMARK  267  A    between atoms: _651  and  _652
REMARK  268  A    between atoms: _652  and  _653
REMARK  269  A    between atoms: _653  and  _654
REMARK  270  A    between atoms: _658  and  _660
REMARK  271  A    between atoms: _660  and  _661
REMARK  272  A    between atoms: _660  and  _663
REMARK  273  A    between atoms: _663  and  _664
REMARK  274  A    between atoms: _667  and  _669
REMARK  275  A    between atoms: _669  and  _670
REMARK  276  A    between atoms: _669  and  _672
REMARK  277  A    between atoms: _672  and  _673
REMARK  278  A    between atoms: _676  and  _678
REMARK  279  A    between atoms: _678  and  _679
REMARK  280  A    between atoms: _678  and  _681
REMARK  281  A    between atoms: _684  and  _686
REMARK  282  A    between atoms: _686  and  _687
REMARK  283  A    between atoms: _686  and  _689
REMARK  284  A    between atoms: _689  and  _690
REMARK                            x       y       z     vdW  Elec       q    Type
REMARK                         _______ _______ _______ _____ _____    ______ ____
ROOT
ATOM      1  O   HOH     1      62.058   6.289   6.495  0.00  0.00    +0.000 OA
ENDROOT
TORSDOF 0
REMARK  Name = ../refined-set-2016/2o4j/2o4j_pocket.pdb
REMARK  284 active torsions:
REMARK  status: ('A' for Active; 'I' for Inactive)
REMARK    1  A    between atoms: _1  and  _3
REMARK    2  A    between atoms: _3  and  _4
REMARK    3  A    between atoms: _3  and  _6
REMARK    4  A    between atoms: _6  and  _7
REMARK    5  A    between atoms: _10  and  _12
REMARK    6  A    between atoms: _12  and  _13
REMARK    7  A    between atoms: _12  and  _15
REMARK    8  A    between atoms: _15  and  _16
REMARK    9  A    between atoms: _21  and  _22
REMARK   10  A    between atoms: _24  and  _26
REMARK   11  A    between atoms: _26  and  _27
REMARK   12  A    between atoms: _26  and  _29
REMARK   13  A    between atoms: _29  and  _30
REMARK   14  A    between atoms: _34  and  _35
REMARK   15  A    between atoms: _40  and  _42
REMARK   16  A    between atoms: _42  and  _43
REMARK   17  A    between atoms: _42  and  _45
REMARK   18  A    between atoms: _45  and  _46
REMARK   19  A    between atoms: _51  and  _52
REMARK   20  A    between atoms: _54  and  _56
REMARK   21  A    between atoms: _56  and  _57
REMARK   22  A    between atoms: _56  and  _59
REMARK   23  A    between atoms: _59  and  _60
REMARK   24  A    between atoms: _66  and  _68
REMARK   25  A    between atoms: _68  and  _69
REMARK   26  A    between atoms: _68  and  _71
REMARK   27  A    between atoms: _71  and  _72
REMARK   28  A    between atoms: _78  and  _80
REMARK   29  A    between atoms: _80  and  _81
REMARK   30  A    between atoms: _80  and  _83
REMARK   31  A    between atoms: _83  and  _84
REMARK   32  A    between atoms: _84  and  _85
REMARK   33  A    between atoms: _85  and  _86
REMARK   34  A    between atoms: _95  and  _97
REMARK   35  A    between atoms: _97  and  _98
REMARK   36  A    between atoms: _97  and  _100
REMARK   37  A    between atoms: _100  and  _101
REMARK   38  A    between atoms: _101  and  _102
REMARK   39  A    between atoms: _104  and  _106
REMARK   40  A    between atoms: _106  and  _107
REMARK   41  A    between atoms: _106  and  _109
REMARK   42  A    between atoms: _109  and  _110
REMARK   43  A    between atoms: _114  and  _115
REMARK   44  A    between atoms: _120  and  _122
REMARK   45  A    between atoms: _122  and  _123
REMARK   46  A    between atoms: _122  and  _125
REMARK   47  A    between atoms: _125  and  _126
REMARK   48  A    between atoms: _131  and  _133
REMARK   49  A    between atoms: _133  and  _134
REMARK   50  A    between atoms: _133  and  _136
REMARK   51  A    between atoms: _136  and  _137
REMARK   52  A    between atoms: _140  and  _142
REMARK   53  A    between atoms: _142  and  _143
REMARK   54  A    between atoms: _146  and  _148
REMARK   55  A    between atoms: _148  and  _149
REMARK   56  A    between atoms: _148  and  _151
REMARK   57  A    between atoms: _151  and  _152
REMARK   58  A    between atoms: _155  and  _157
REMARK   59  A    between atoms: _157  and  _158
REMARK   60  A    between atoms: _157  and  _160
REMARK   61  A    between atoms: _160  and  _161
REMARK   62  A    between atoms: _164  and  _166
REMARK   63  A    between atoms: _166  and  _167
REMARK   64  A    between atoms: _166  and  _169
REMARK   65  A    between atoms: _172  and  _174
REMARK   66  A    between atoms: _174  and  _175
REMARK   67  A    between atoms: _174  and  _177
REMARK   68  A    between atoms: _177  and  _178
REMARK   69  A    between atoms: _180  and  _182
REMARK   70  A    between atoms: _182  and  _183
REMARK   71  A    between atoms: _182  and  _185
REMARK   72  A    between atoms: _185  and  _186
REMARK   73  A    between atoms: _191  and  _192
REMARK   74  A    between atoms: _194  and  _196
REMARK   75  A    between atoms: _196  and  _197
REMARK   76  A    between atoms: _196  and  _199
REMARK   77  A    between atoms: _199  and  _200
REMARK   78  A    between atoms: _202  and  _204
REMARK   79  A    between atoms: _204  and  _205
REMARK   80  A    between atoms: _204  and  _207
REMARK   81  A    between atoms: _207  and  _208
REMARK   82  A    between atoms: _211  and  _213
REMARK   83  A    between atoms: _213  and  _214
REMARK   84  A    between atoms: _213  and  _216
REMARK   85  A    between atoms: _216  and  _217
REMARK   86  A    between atoms: _217  and  _218
REMARK   87  A    between atoms: _218  and  _219
REMARK   88  A    between atoms: _219  and  _220
REMARK   89  A    between atoms: _224  and  _226
REMARK   90  A    between atoms: _226  and  _227
REMARK   91  A    between atoms: _226  and  _229
REMARK   92  A    between atoms: _232  and  _234
REMARK   93  A    between atoms: _234  and  _235
REMARK   94  A    between atoms: _238  and  _240
REMARK   95  A    between atoms: _240  and  _241
REMARK   96  A    between atoms: _240  and  _243
REMARK   97  A    between atoms: _243  and  _244
REMARK   98  A    between atoms: _247  and  _249
REMARK   99  A    between atoms: _249  and  _250
REMARK  100  A    between atoms: _249  and  _252
REMARK  101  A    between atoms: _252  and  _253
REMARK  102  A    between atoms: _253  and  _254
REMARK  103  A    between atoms: _257  and  _259
REMARK  104  A    between atoms: _259  and  _260
REMARK  105  A    between atoms: _259  and  _262
REMARK  106  A    between atoms: _265  and  _267
REMARK  107  A    between atoms: _267  and  _268
REMARK  108  A    between atoms: _267  and  _270
REMARK  109  A    between atoms: _270  and  _271
REMARK  110  A    between atoms: _274  and  _276
REMARK  111  A    between atoms: _276  and  _277
REMARK  112  A    between atoms: _276  and  _279
REMARK  113  A    between atoms: _279  and  _280
REMARK  114  A    between atoms: _280  and  _281
REMARK  115  A    between atoms: _283  and  _285
REMARK  116  A    between atoms: _285  and  _286
REMARK  117  A    between atoms: _285  and  _288
REMARK  118  A    between atoms: _288  and  _289
REMARK  119  A    between atoms: _292  and  _294
REMARK  120  A    between atoms: _294  and  _295
REMARK  121  A    between atoms: _294  and  _297
REMARK  122  A    between atoms: _297  and  _298
REMARK  123  A    between atoms: _298  and  _299
REMARK  124  A    between atoms: _299  and  _300
REMARK  125  A    between atoms: _309  and  _311
REMARK  126  A    between atoms: _311  and  _312
REMARK  127  A    between atoms: _311  and  _314
REMARK  128  A    between atoms: _314  and  _315
REMARK  129  A    between atoms: _317  and  _319
REMARK  130  A    between atoms: _319  and  _320
REMARK  131  A    between atoms: _319  and  _322
REMARK  132  A    between atoms: _322  and  _323
REMARK  133  A    between atoms: _328  and  _330
REMARK  134  A    between atoms: _330  and  _331
REMARK  135  A    between atoms: _330  and  _333
REMARK  136  A    between atoms: _333  and  _334
REMARK  137  A    between atoms: _334  and  _335
REMARK  138  A    between atoms: _340  and  _342
REMARK  139  A    between atoms: _342  and  _343
REMARK  140  A    between atoms: _342  and  _345
REMARK  141  A    between atoms: _345  and  _346
REMARK  142  A    between atoms: _348  and  _350
REMARK  143  A    between atoms: _350  and  _351
REMARK  144  A    between atoms: _350  and  _353
REMARK  145  A    between atoms: _353  and  _354
REMARK  146  A    between atoms: _360  and  _362
REMARK  147  A    between atoms: _362  and  _363
REMARK  148  A    between atoms: _362  and  _365
REMARK  149  A    between atoms: _365  and  _366
REMARK  150  A    between atoms: _368  and  _370
REMARK  151  A    between atoms: _370  and  _371
REMARK  152  A    between atoms: _370  and  _373
REMARK  153  A    between atoms: _373  and  _374
REMARK  154  A    between atoms: _384  and  _386
REMARK  155  A    between atoms: _386  and  _387
REMARK  156  A    between atoms: _386  and  _389
REMARK  157  A    between atoms: _389  and  _390
REMARK  158  A    between atoms: _393  and  _395
REMARK  159  A    between atoms: _395  and  _396
REMARK  160  A    between atoms: _395  and  _398
REMARK  161  A    between atoms: _400  and  _402
REMARK  162  A    between atoms: _402  and  _403
REMARK  163  A    between atoms: _402  and  _405
REMARK  164  A    between atoms: _405  and  _406
REMARK  165  A    between atoms: _411  and  _412
REMARK  166  A    between atoms: _414  and  _416
REMARK  167  A    between atoms: _416  and  _417
REMARK  168  A    between atoms: _416  and  _419
REMARK  169  A    between atoms: _419  and  _420
REMARK  170  A    between atoms: _420  and  _421
REMARK  171  A    between atoms: _421  and  _422
REMARK  172  A    between atoms: _422  and  _423
REMARK  173  A    between atoms: _427  and  _429
REMARK  174  A    between atoms: _429  and  _430
REMARK  175  A    between atoms: _429  and  _432
REMARK  176  A    between atoms: _432  and  _433
REMARK  177  A    between atoms: _438  and  _439
REMARK  178  A    between atoms: _441  and  _443
REMARK  179  A    between atoms: _443  and  _444
REMARK  180  A    between atoms: _443  and  _446
REMARK  181  A    between atoms: _446  and  _447
REMARK  182  A    between atoms: _450  and  _452
REMARK  183  A    between atoms: _452  and  _453
REMARK  184  A    between atoms: _452  and  _455
REMARK  185  A    between atoms: _455  and  _456
REMARK  186  A    between atoms: _459  and  _461
REMARK  187  A    between atoms: _461  and  _462
REMARK  188  A    between atoms: _461  and  _464
REMARK  189  A    between atoms: _467  and  _469
REMARK  190  A    between atoms: _469  and  _470
REMARK  191  A    between atoms: _469  and  _472
REMARK  192  A    between atoms: _472  and  _473
REMARK  193  A    between atoms: _475  and  _477
REMARK  194  A    between atoms: _477  and  _478
REMARK  195  A    between atoms: _481  and  _483
REMARK  196  A    between atoms: _483  and  _484
REMARK  197  A    between atoms: _486  and  _488
REMARK  198  A    between atoms: _488  and  _489
REMARK  199  A    between atoms: _488  and  _491
REMARK  200  A    between atoms: _491  and  _492
REMARK  201  A    between atoms: _497  and  _499
REMARK  202  A    between atoms: _499  and  _500
REMARK  203  A    between atoms: _499  and  _502
REMARK  204  A    between atoms: _502  and  _503
REMARK  205  A    between atoms: _506  and  _508
REMARK  206  A    between atoms: _508  and  _509
REMARK  207  A    between atoms: _508  and  _511
REMARK  208  A    between atoms: _511  and  _512
REMARK  209  A    between atoms: _515  and  _517
REMARK  210  A    between atoms: _517  and  _518
REMARK  211  A    between atoms: _517  and  _520
REMARK  212  A    between atoms: _520  and  _521
REMARK  213  A    between atoms: _524  and  _526
REMARK  214  A    between atoms: _526  and  _527
REMARK  215  A    between atoms: _526  and  _529
REMARK  216  A    between atoms: _529  and  _530
REMARK  217  A    between atoms: _530  and  _531
REMARK  218  A    between atoms: _536  and  _538
REMARK  219  A    between atoms: _538  and  _539
REMARK  220  A    between atoms: _538  and  _541
REMARK  221  A    between atoms: _541  and  _542
REMARK  222  A    between atoms: _545  and  _547
REMARK  223  A    between atoms: _547  and  _548
REMARK  224  A    between atoms: _547  and  _550
REMARK  225  A    between atoms: _550  and  _551
REMARK  226  A    between atoms: _551  and  _552
REMARK  227  A    between atoms: _555  and  _557
REMARK  228  A    between atoms: _557  and  _558
REMARK  229  A    between atoms: _557  and  _560
REMARK  230  A    between atoms: _560  and  _561
REMARK  231  A    between atoms: _566  and  _568
REMARK  232  A    between atoms: _568  and  _569
REMARK  233  A    between atoms: _568  and  _571
REMARK  234  A    between atoms: _571  and  _572
REMARK  235  A    between atoms: _574  and  _576
REMARK  236  A    between atoms: _576  and  _577
REMARK  237  A    between atoms: _576  and  _579
REMARK  238  A    between atoms: _579  and  _580
REMARK  239  A    between atoms: _580  and  _581
REMARK  240  A    between atoms: _586  and  _588
REMARK  241  A    between atoms: _588  and  _589
REMARK  242  A    between atoms: _588  and  _591
REMARK  243  A    between atoms: _591  and  _592
REMARK  244  A    between atoms: _597  and  _598
REMARK  245  A    between atoms: _600  and  _602
REMARK  246  A    between atoms: _602  and  _603
REMARK  247  A    between atoms: _602  and  _605
REMARK  248  A    between atoms: _605  and  _606
REMARK  249  A    between atoms: _606  and  _607
REMARK  250  A    between atoms: _607  and  _608
REMARK  251  A    between atoms: _617  and  _619
REMARK  252  A    between atoms: _619  and  _620
REMARK  253  A    between atoms: _619  and  _622
REMARK  254  A    between atoms: _622  and  _623
REMARK  255  A    between atoms: _626  and  _628
REMARK  256  A    between atoms: _628  and  _629
REMARK  257  A    between atoms: _628  and  _631
REMARK  258  A    between atoms: _631  and  _632
REMARK  259  A    between atoms: _634  and  _636
REMARK  260  A    between atoms: _636  and  _637
REMARK  261  A    between atoms: _636  and  _639
REMARK  262  A    between atoms: _639  and  _640
REMARK  263  A    between atoms: _645  and  _647
REMARK  264  A    between atoms: _647  and  _648
REMARK  265  A    between atoms: _647  and  _650
REMARK  266  A    between atoms: _650  and  _651
REMARK  267  A    between atoms: _651  and  _652
REMARK  268  A    between atoms: _652  and  _653
REMARK  269  A    between atoms: _653  and  _654
REMARK  270  A    between atoms: _658  and  _660
REMARK  271  A    between atoms: _660  and  _661
REMARK  272  A    between atoms: _660  and  _663
REMARK  273  A    between atoms: _663  and  _664
REMARK  274  A    between atoms: _667  and  _669
REMARK  275  A    between atoms: _669  and  _670
REMARK  276  A    between atoms: _669  and  _672
REMARK  277  A    between atoms: _672  and  _673
REMARK  278  A    between atoms: _676  and  _678
REMARK  279  A    between atoms: _678  and  _679
REMARK  280  A    between atoms: _678  and  _681
REMARK  281  A    between atoms: _684  and  _686
REMARK  282  A    between atoms: _686  and  _687
REMARK  283  A    between atoms: _686  and  _689
REMARK  284  A    between atoms: _689  and  _690
REMARK                            x       y       z     vdW  Elec       q    Type
REMARK                         _______ _______ _______ _____ _____    ______ ____
ROOT
ATOM      1  O   HOH     1      57.426   3.114   8.882  0.00  0.00    +0.000 OA
ENDROOT
TORSDOF 0
REMARK  Name = ../refined-set-2016/2o4j/2o4j_pocket.pdb
REMARK  284 active torsions:
REMARK  status: ('A' for Active; 'I' for Inactive)
REMARK    1  A    between atoms: _1  and  _3
REMARK    2  A    between atoms: _3  and  _4
REMARK    3  A    between atoms: _3  and  _6
REMARK    4  A    between atoms: _6  and  _7
REMARK    5  A    between atoms: _10  and  _12
REMARK    6  A    between atoms: _12  and  _13
REMARK    7  A    between atoms: _12  and  _15
REMARK    8  A    between atoms: _15  and  _16
REMARK    9  A    between atoms: _21  and  _22
REMARK   10  A    between atoms: _24  and  _26
REMARK   11  A    between atoms: _26  and  _27
REMARK   12  A    between atoms: _26  and  _29
REMARK   13  A    between atoms: _29  and  _30
REMARK   14  A    between atoms: _34  and  _35
REMARK   15  A    between atoms: _40  and  _42
REMARK   16  A    between atoms: _42  and  _43
REMARK   17  A    between atoms: _42  and  _45
REMARK   18  A    between atoms: _45  and  _46
REMARK   19  A    between atoms: _51  and  _52
REMARK   20  A    between atoms: _54  and  _56
REMARK   21  A    between atoms: _56  and  _57
REMARK   22  A    between atoms: _56  and  _59
REMARK   23  A    between atoms: _59  and  _60
REMARK   24  A    between atoms: _66  and  _68
REMARK   25  A    between atoms: _68  and  _69
REMARK   26  A    between atoms: _68  and  _71
REMARK   27  A    between atoms: _71  and  _72
REMARK   28  A    between atoms: _78  and  _80
REMARK   29  A    between atoms: _80  and  _81
REMARK   30  A    between atoms: _80  and  _83
REMARK   31  A    between atoms: _83  and  _84
REMARK   32  A    between atoms: _84  and  _85
REMARK   33  A    between atoms: _85  and  _86
REMARK   34  A    between atoms: _95  and  _97
REMARK   35  A    between atoms: _97  and  _98
REMARK   36  A    between atoms: _97  and  _100
REMARK   37  A    between atoms: _100  and  _101
REMARK   38  A    between atoms: _101  and  _102
REMARK   39  A    between atoms: _104  and  _106
REMARK   40  A    between atoms: _106  and  _107
REMARK   41  A    between atoms: _106  and  _109
REMARK   42  A    between atoms: _109  and  _110
REMARK   43  A    between atoms: _114  and  _115
REMARK   44  A    between atoms: _120  and  _122
REMARK   45  A    between atoms: _122  and  _123
REMARK   46  A    between atoms: _122  and  _125
REMARK   47  A    between atoms: _125  and  _126
REMARK   48  A    between atoms: _131  and  _133
REMARK   49  A    between atoms: _133  and  _134
REMARK   50  A    between atoms: _133  and  _136
REMARK   51  A    between atoms: _136  and  _137
REMARK   52  A    between atoms: _140  and  _142
REMARK   53  A    between atoms: _142  and  _143
REMARK   54  A    between atoms: _146  and  _148
REMARK   55  A    between atoms: _148  and  _149
REMARK   56  A    between atoms: _148  and  _151
REMARK   57  A    between atoms: _151  and  _152
REMARK   58  A    between atoms: _155  and  _157
REMARK   59  A    between atoms: _157  and  _158
REMARK   60  A    between atoms: _157  and  _160
REMARK   61  A    between atoms: _160  and  _161
REMARK   62  A    between atoms: _164  and  _166
REMARK   63  A    between atoms: _166  and  _167
REMARK   64  A    between atoms: _166  and  _169
REMARK   65  A    between atoms: _172  and  _174
REMARK   66  A    between atoms: _174  and  _175
REMARK   67  A    between atoms: _174  and  _177
REMARK   68  A    between atoms: _177  and  _178
REMARK   69  A    between atoms: _180  and  _182
REMARK   70  A    between atoms: _182  and  _183
REMARK   71  A    between atoms: _182  and  _185
REMARK   72  A    between atoms: _185  and  _186
REMARK   73  A    between atoms: _191  and  _192
REMARK   74  A    between atoms: _194  and  _196
REMARK   75  A    between atoms: _196  and  _197
REMARK   76  A    between atoms: _196  and  _199
REMARK   77  A    between atoms: _199  and  _200
REMARK   78  A    between atoms: _202  and  _204
REMARK   79  A    between atoms: _204  and  _205
REMARK   80  A    between atoms: _204  and  _207
REMARK   81  A    between atoms: _207  and  _208
REMARK   82  A    between atoms: _211  and  _213
REMARK   83  A    between atoms: _213  and  _214
REMARK   84  A    between atoms: _213  and  _216
REMARK   85  A    between atoms: _216  and  _217
REMARK   86  A    between atoms: _217  and  _218
REMARK   87  A    between atoms: _218  and  _219
REMARK   88  A    between atoms: _219  and  _220
REMARK   89  A    between atoms: _224  and  _226
REMARK   90  A    between atoms: _226  and  _227
REMARK   91  A    between atoms: _226  and  _229
REMARK   92  A    between atoms: _232  and  _234
REMARK   93  A    between atoms: _234  and  _235
REMARK   94  A    between atoms: _238  and  _240
REMARK   95  A    between atoms: _240  and  _241
REMARK   96  A    between atoms: _240  and  _243
REMARK   97  A    between atoms: _243  and  _244
REMARK   98  A    between atoms: _247  and  _249
REMARK   99  A    between atoms: _249  and  _250
REMARK  100  A    between atoms: _249  and  _252
REMARK  101  A    between atoms: _252  and  _253
REMARK  102  A    between atoms: _253  and  _254
REMARK  103  A    between atoms: _257  and  _259
REMARK  104  A    between atoms: _259  and  _260
REMARK  105  A    between atoms: _259  and  _262
REMARK  106  A    between atoms: _265  and  _267
REMARK  107  A    between atoms: _267  and  _268
REMARK  108  A    between atoms: _267  and  _270
REMARK  109  A    between atoms: _270  and  _271
REMARK  110  A    between atoms: _274  and  _276
REMARK  111  A    between atoms: _276  and  _277
REMARK  112  A    between atoms: _276  and  _279
REMARK  113  A    between atoms: _279  and  _280
REMARK  114  A    between atoms: _280  and  _281
REMARK  115  A    between atoms: _283  and  _285
REMARK  116  A    between atoms: _285  and  _286
REMARK  117  A    between atoms: _285  and  _288
REMARK  118  A    between atoms: _288  and  _289
REMARK  119  A    between atoms: _292  and  _294
REMARK  120  A    between atoms: _294  and  _295
REMARK  121  A    between atoms: _294  and  _297
REMARK  122  A    between atoms: _297  and  _298
REMARK  123  A    between atoms: _298  and  _299
REMARK  124  A    between atoms: _299  and  _300
REMARK  125  A    between atoms: _309  and  _311
REMARK  126  A    between atoms: _311  and  _312
REMARK  127  A    between atoms: _311  and  _314
REMARK  128  A    between atoms: _314  and  _315
REMARK  129  A    between atoms: _317  and  _319
REMARK  130  A    between atoms: _319  and  _320
REMARK  131  A    between atoms: _319  and  _322
REMARK  132  A    between atoms: _322  and  _323
REMARK  133  A    between atoms: _328  and  _330
REMARK  134  A    between atoms: _330  and  _331
REMARK  135  A    between atoms: _330  and  _333
REMARK  136  A    between atoms: _333  and  _334
REMARK  137  A    between atoms: _334  and  _335
REMARK  138  A    between atoms: _340  and  _342
REMARK  139  A    between atoms: _342  and  _343
REMARK  140  A    between atoms: _342  and  _345
REMARK  141  A    between atoms: _345  and  _346
REMARK  142  A    between atoms: _348  and  _350
REMARK  143  A    between atoms: _350  and  _351
REMARK  144  A    between atoms: _350  and  _353
REMARK  145  A    between atoms: _353  and  _354
REMARK  146  A    between atoms: _360  and  _362
REMARK  147  A    between atoms: _362  and  _363
REMARK  148  A    between atoms: _362  and  _365
REMARK  149  A    between atoms: _365  and  _366
REMARK  150  A    between atoms: _368  and  _370
REMARK  151  A    between atoms: _370  and  _371
REMARK  152  A    between atoms: _370  and  _373
REMARK  153  A    between atoms: _373  and  _374
REMARK  154  A    between atoms: _384  and  _386
REMARK  155  A    between atoms: _386  and  _387
REMARK  156  A    between atoms: _386  and  _389
REMARK  157  A    between atoms: _389  and  _390
REMARK  158  A    between atoms: _393  and  _395
REMARK  159  A    between atoms: _395  and  _396
REMARK  160  A    between atoms: _395  and  _398
REMARK  161  A    between atoms: _400  and  _402
REMARK  162  A    between atoms: _402  and  _403
REMARK  163  A    between atoms: _402  and  _405
REMARK  164  A    between atoms: _405  and  _406
REMARK  165  A    between atoms: _411  and  _412
REMARK  166  A    between atoms: _414  and  _416
REMARK  167  A    between atoms: _416  and  _417
REMARK  168  A    between atoms: _416  and  _419
REMARK  169  A    between atoms: _419  and  _420
REMARK  170  A    between atoms: _420  and  _421
REMARK  171  A    between atoms: _421  and  _422
REMARK  172  A    between atoms: _422  and  _423
REMARK  173  A    between atoms: _427  and  _429
REMARK  174  A    between atoms: _429  and  _430
REMARK  175  A    between atoms: _429  and  _432
REMARK  176  A    between atoms: _432  and  _433
REMARK  177  A    between atoms: _438  and  _439
REMARK  178  A    between atoms: _441  and  _443
REMARK  179  A    between atoms: _443  and  _444
REMARK  180  A    between atoms: _443  and  _446
REMARK  181  A    between atoms: _446  and  _447
REMARK  182  A    between atoms: _450  and  _452
REMARK  183  A    between atoms: _452  and  _453
REMARK  184  A    between atoms: _452  and  _455
REMARK  185  A    between atoms: _455  and  _456
REMARK  186  A    between atoms: _459  and  _461
REMARK  187  A    between atoms: _461  and  _462
REMARK  188  A    between atoms: _461  and  _464
REMARK  189  A    between atoms: _467  and  _469
REMARK  190  A    between atoms: _469  and  _470
REMARK  191  A    between atoms: _469  and  _472
REMARK  192  A    between atoms: _472  and  _473
REMARK  193  A    between atoms: _475  and  _477
REMARK  194  A    between atoms: _477  and  _478
REMARK  195  A    between atoms: _481  and  _483
REMARK  196  A    between atoms: _483  and  _484
REMARK  197  A    between atoms: _486  and  _488
REMARK  198  A    between atoms: _488  and  _489
REMARK  199  A    between atoms: _488  and  _491
REMARK  200  A    between atoms: _491  and  _492
REMARK  201  A    between atoms: _497  and  _499
REMARK  202  A    between atoms: _499  and  _500
REMARK  203  A    between atoms: _499  and  _502
REMARK  204  A    between atoms: _502  and  _503
REMARK  205  A    between atoms: _506  and  _508
REMARK  206  A    between atoms: _508  and  _509
REMARK  207  A    between atoms: _508  and  _511
REMARK  208  A    between atoms: _511  and  _512
REMARK  209  A    between atoms: _515  and  _517
REMARK  210  A    between atoms: _517  and  _518
REMARK  211  A    between atoms: _517  and  _520
REMARK  212  A    between atoms: _520  and  _521
REMARK  213  A    between atoms: _524  and  _526
REMARK  214  A    between atoms: _526  and  _527
REMARK  215  A    between atoms: _526  and  _529
REMARK  216  A    between atoms: _529  and  _530
REMARK  217  A    between atoms: _530  and  _531
REMARK  218  A    between atoms: _536  and  _538
REMARK  219  A    between atoms: _538  and  _539
REMARK  220  A    between atoms: _538  and  _541
REMARK  221  A    between atoms: _541  and  _542
REMARK  222  A    between atoms: _545  and  _547
REMARK  223  A    between atoms: _547  and  _548
REMARK  224  A    between atoms: _547  and  _550
REMARK  225  A    between atoms: _550  and  _551
REMARK  226  A    between atoms: _551  and  _552
REMARK  227  A    between atoms: _555  and  _557
REMARK  228  A    between atoms: _557  and  _558
REMARK  229  A    between atoms: _557  and  _560
REMARK  230  A    between atoms: _560  and  _561
REMARK  231  A    between atoms: _566  and  _568
REMARK  232  A    between atoms: _568  and  _569
REMARK  233  A    between atoms: _568  and  _571
REMARK  234  A    between atoms: _571  and  _572
REMARK  235  A    between atoms: _574  and  _576
REMARK  236  A    between atoms: _576  and  _577
REMARK  237  A    between atoms: _576  and  _579
REMARK  238  A    between atoms: _579  and  _580
REMARK  239  A    between atoms: _580  and  _581
REMARK  240  A    between atoms: _586  and  _588
REMARK  241  A    between atoms: _588  and  _589
REMARK  242  A    between atoms: _588  and  _591
REMARK  243  A    between atoms: _591  and  _592
REMARK  244  A    between atoms: _597  and  _598
REMARK  245  A    between atoms: _600  and  _602
REMARK  246  A    between atoms: _602  and  _603
REMARK  247  A    between atoms: _602  and  _605
REMARK  248  A    between atoms: _605  and  _606
REMARK  249  A    between atoms: _606  and  _607
REMARK  250  A    between atoms: _607  and  _608
REMARK  251  A    between atoms: _617  and  _619
REMARK  252  A    between atoms: _619  and  _620
REMARK  253  A    between atoms: _619  and  _622
REMARK  254  A    between atoms: _622  and  _623
REMARK  255  A    between atoms: _626  and  _628
REMARK  256  A    between atoms: _628  and  _629
REMARK  257  A    between atoms: _628  and  _631
REMARK  258  A    between atoms: _631  and  _632
REMARK  259  A    between atoms: _634  and  _636
REMARK  260  A    between atoms: _636  and  _637
REMARK  261  A    between atoms: _636  and  _639
REMARK  262  A    between atoms: _639  and  _640
REMARK  263  A    between atoms: _645  and  _647
REMARK  264  A    between atoms: _647  and  _648
REMARK  265  A    between atoms: _647  and  _650
REMARK  266  A    between atoms: _650  and  _651
REMARK  267  A    between atoms: _651  and  _652
REMARK  268  A    between atoms: _652  and  _653
REMARK  269  A    between atoms: _653  and  _654
REMARK  270  A    between atoms: _658  and  _660
REMARK  271  A    between atoms: _660  and  _661
REMARK  272  A    between atoms: _660  and  _663
REMARK  273  A    between atoms: _663  and  _664
REMARK  274  A    between atoms: _667  and  _669
REMARK  275  A    between atoms: _669  and  _670
REMARK  276  A    between atoms: _669  and  _672
REMARK  277  A    between atoms: _672  and  _673
REMARK  278  A    between atoms: _676  and  _678
REMARK  279  A    between atoms: _678  and  _679
REMARK  280  A    between atoms: _678  and  _681
REMARK  281  A    between atoms: _684  and  _686
REMARK  282  A    between atoms: _686  and  _687
REMARK  283  A    between atoms: _686  and  _689
REMARK  284  A    between atoms: _689  and  _690
REMARK                            x       y       z     vdW  Elec       q    Type
REMARK                         _______ _______ _______ _____ _____    ______ ____
ROOT
ATOM      1  O   HOH     1      61.788   9.200   6.078  0.00  0.00    +0.000 OA
ENDROOT
TORSDOF 0
REMARK  Name = ../refined-set-2016/2o4j/2o4j_pocket.pdb
REMARK  284 active torsions:
REMARK  status: ('A' for Active; 'I' for Inactive)
REMARK    1  A    between atoms: _1  and  _3
REMARK    2  A    between atoms: _3  and  _4
REMARK    3  A    between atoms: _3  and  _6
REMARK    4  A    between atoms: _6  and  _7
REMARK    5  A    between atoms: _10  and  _12
REMARK    6  A    between atoms: _12  and  _13
REMARK    7  A    between atoms: _12  and  _15
REMARK    8  A    between atoms: _15  and  _16
REMARK    9  A    between atoms: _21  and  _22
REMARK   10  A    between atoms: _24  and  _26
REMARK   11  A    between atoms: _26  and  _27
REMARK   12  A    between atoms: _26  and  _29
REMARK   13  A    between atoms: _29  and  _30
REMARK   14  A    between atoms: _34  and  _35
REMARK   15  A    between atoms: _40  and  _42
REMARK   16  A    between atoms: _42  and  _43
REMARK   17  A    between atoms: _42  and  _45
REMARK   18  A    between atoms: _45  and  _46
REMARK   19  A    between atoms: _51  and  _52
REMARK   20  A    between atoms: _54  and  _56
REMARK   21  A    between atoms: _56  and  _57
REMARK   22  A    between atoms: _56  and  _59
REMARK   23  A    between atoms: _59  and  _60
REMARK   24  A    between atoms: _66  and  _68
REMARK   25  A    between atoms: _68  and  _69
REMARK   26  A    between atoms: _68  and  _71
REMARK   27  A    between atoms: _71  and  _72
REMARK   28  A    between atoms: _78  and  _80
REMARK   29  A    between atoms: _80  and  _81
REMARK   30  A    between atoms: _80  and  _83
REMARK   31  A    between atoms: _83  and  _84
REMARK   32  A    between atoms: _84  and  _85
REMARK   33  A    between atoms: _85  and  _86
REMARK   34  A    between atoms: _95  and  _97
REMARK   35  A    between atoms: _97  and  _98
REMARK   36  A    between atoms: _97  and  _100
REMARK   37  A    between atoms: _100  and  _101
REMARK   38  A    between atoms: _101  and  _102
REMARK   39  A    between atoms: _104  and  _106
REMARK   40  A    between atoms: _106  and  _107
REMARK   41  A    between atoms: _106  and  _109
REMARK   42  A    between atoms: _109  and  _110
REMARK   43  A    between atoms: _114  and  _115
REMARK   44  A    between atoms: _120  and  _122
REMARK   45  A    between atoms: _122  and  _123
REMARK   46  A    between atoms: _122  and  _125
REMARK   47  A    between atoms: _125  and  _126
REMARK   48  A    between atoms: _131  and  _133
REMARK   49  A    between atoms: _133  and  _134
REMARK   50  A    between atoms: _133  and  _136
REMARK   51  A    between atoms: _136  and  _137
REMARK   52  A    between atoms: _140  and  _142
REMARK   53  A    between atoms: _142  and  _143
REMARK   54  A    between atoms: _146  and  _148
REMARK   55  A    between atoms: _148  and  _149
REMARK   56  A    between atoms: _148  and  _151
REMARK   57  A    between atoms: _151  and  _152
REMARK   58  A    between atoms: _155  and  _157
REMARK   59  A    between atoms: _157  and  _158
REMARK   60  A    between atoms: _157  and  _160
REMARK   61  A    between atoms: _160  and  _161
REMARK   62  A    between atoms: _164  and  _166
REMARK   63  A    between atoms: _166  and  _167
REMARK   64  A    between atoms: _166  and  _169
REMARK   65  A    between atoms: _172  and  _174
REMARK   66  A    between atoms: _174  and  _175
REMARK   67  A    between atoms: _174  and  _177
REMARK   68  A    between atoms: _177  and  _178
REMARK   69  A    between atoms: _180  and  _182
REMARK   70  A    between atoms: _182  and  _183
REMARK   71  A    between atoms: _182  and  _185
REMARK   72  A    between atoms: _185  and  _186
REMARK   73  A    between atoms: _191  and  _192
REMARK   74  A    between atoms: _194  and  _196
REMARK   75  A    between atoms: _196  and  _197
REMARK   76  A    between atoms: _196  and  _199
REMARK   77  A    between atoms: _199  and  _200
REMARK   78  A    between atoms: _202  and  _204
REMARK   79  A    between atoms: _204  and  _205
REMARK   80  A    between atoms: _204  and  _207
REMARK   81  A    between atoms: _207  and  _208
REMARK   82  A    between atoms: _211  and  _213
REMARK   83  A    between atoms: _213  and  _214
REMARK   84  A    between atoms: _213  and  _216
REMARK   85  A    between atoms: _216  and  _217
REMARK   86  A    between atoms: _217  and  _218
REMARK   87  A    between atoms: _218  and  _219
REMARK   88  A    between atoms: _219  and  _220
REMARK   89  A    between atoms: _224  and  _226
REMARK   90  A    between atoms: _226  and  _227
REMARK   91  A    between atoms: _226  and  _229
REMARK   92  A    between atoms: _232  and  _234
REMARK   93  A    between atoms: _234  and  _235
REMARK   94  A    between atoms: _238  and  _240
REMARK   95  A    between atoms: _240  and  _241
REMARK   96  A    between atoms: _240  and  _243
REMARK   97  A    between atoms: _243  and  _244
REMARK   98  A    between atoms: _247  and  _249
REMARK   99  A    between atoms: _249  and  _250
REMARK  100  A    between atoms: _249  and  _252
REMARK  101  A    between atoms: _252  and  _253
REMARK  102  A    between atoms: _253  and  _254
REMARK  103  A    between atoms: _257  and  _259
REMARK  104  A    between atoms: _259  and  _260
REMARK  105  A    between atoms: _259  and  _262
REMARK  106  A    between atoms: _265  and  _267
REMARK  107  A    between atoms: _267  and  _268
REMARK  108  A    between atoms: _267  and  _270
REMARK  109  A    between atoms: _270  and  _271
REMARK  110  A    between atoms: _274  and  _276
REMARK  111  A    between atoms: _276  and  _277
REMARK  112  A    between atoms: _276  and  _279
REMARK  113  A    between atoms: _279  and  _280
REMARK  114  A    between atoms: _280  and  _281
REMARK  115  A    between atoms: _283  and  _285
REMARK  116  A    between atoms: _285  and  _286
REMARK  117  A    between atoms: _285  and  _288
REMARK  118  A    between atoms: _288  and  _289
REMARK  119  A    between atoms: _292  and  _294
REMARK  120  A    between atoms: _294  and  _295
REMARK  121  A    between atoms: _294  and  _297
REMARK  122  A    between atoms: _297  and  _298
REMARK  123  A    between atoms: _298  and  _299
REMARK  124  A    between atoms: _299  and  _300
REMARK  125  A    between atoms: _309  and  _311
REMARK  126  A    between atoms: _311  and  _312
REMARK  127  A    between atoms: _311  and  _314
REMARK  128  A    between atoms: _314  and  _315
REMARK  129  A    between atoms: _317  and  _319
REMARK  130  A    between atoms: _319  and  _320
REMARK  131  A    between atoms: _319  and  _322
REMARK  132  A    between atoms: _322  and  _323
REMARK  133  A    between atoms: _328  and  _330
REMARK  134  A    between atoms: _330  and  _331
REMARK  135  A    between atoms: _330  and  _333
REMARK  136  A    between atoms: _333  and  _334
REMARK  137  A    between atoms: _334  and  _335
REMARK  138  A    between atoms: _340  and  _342
REMARK  139  A    between atoms: _342  and  _343
REMARK  140  A    between atoms: _342  and  _345
REMARK  141  A    between atoms: _345  and  _346
REMARK  142  A    between atoms: _348  and  _350
REMARK  143  A    between atoms: _350  and  _351
REMARK  144  A    between atoms: _350  and  _353
REMARK  145  A    between atoms: _353  and  _354
REMARK  146  A    between atoms: _360  and  _362
REMARK  147  A    between atoms: _362  and  _363
REMARK  148  A    between atoms: _362  and  _365
REMARK  149  A    between atoms: _365  and  _366
REMARK  150  A    between atoms: _368  and  _370
REMARK  151  A    between atoms: _370  and  _371
REMARK  152  A    between atoms: _370  and  _373
REMARK  153  A    between atoms: _373  and  _374
REMARK  154  A    between atoms: _384  and  _386
REMARK  155  A    between atoms: _386  and  _387
REMARK  156  A    between atoms: _386  and  _389
REMARK  157  A    between atoms: _389  and  _390
REMARK  158  A    between atoms: _393  and  _395
REMARK  159  A    between atoms: _395  and  _396
REMARK  160  A    between atoms: _395  and  _398
REMARK  161  A    between atoms: _400  and  _402
REMARK  162  A    between atoms: _402  and  _403
REMARK  163  A    between atoms: _402  and  _405
REMARK  164  A    between atoms: _405  and  _406
REMARK  165  A    between atoms: _411  and  _412
REMARK  166  A    between atoms: _414  and  _416
REMARK  167  A    between atoms: _416  and  _417
REMARK  168  A    between atoms: _416  and  _419
REMARK  169  A    between atoms: _419  and  _420
REMARK  170  A    between atoms: _420  and  _421
REMARK  171  A    between atoms: _421  and  _422
REMARK  172  A    between atoms: _422  and  _423
REMARK  173  A    between atoms: _427  and  _429
REMARK  174  A    between atoms: _429  and  _430
REMARK  175  A    between atoms: _429  and  _432
REMARK  176  A    between atoms: _432  and  _433
REMARK  177  A    between atoms: _438  and  _439
REMARK  178  A    between atoms: _441  and  _443
REMARK  179  A    between atoms: _443  and  _444
REMARK  180  A    between atoms: _443  and  _446
REMARK  181  A    between atoms: _446  and  _447
REMARK  182  A    between atoms: _450  and  _452
REMARK  183  A    between atoms: _452  and  _453
REMARK  184  A    between atoms: _452  and  _455
REMARK  185  A    between atoms: _455  and  _456
REMARK  186  A    between atoms: _459  and  _461
REMARK  187  A    between atoms: _461  and  _462
REMARK  188  A    between atoms: _461  and  _464
REMARK  189  A    between atoms: _467  and  _469
REMARK  190  A    between atoms: _469  and  _470
REMARK  191  A    between atoms: _469  and  _472
REMARK  192  A    between atoms: _472  and  _473
REMARK  193  A    between atoms: _475  and  _477
REMARK  194  A    between atoms: _477  and  _478
REMARK  195  A    between atoms: _481  and  _483
REMARK  196  A    between atoms: _483  and  _484
REMARK  197  A    between atoms: _486  and  _488
REMARK  198  A    between atoms: _488  and  _489
REMARK  199  A    between atoms: _488  and  _491
REMARK  200  A    between atoms: _491  and  _492
REMARK  201  A    between atoms: _497  and  _499
REMARK  202  A    between atoms: _499  and  _500
REMARK  203  A    between atoms: _499  and  _502
REMARK  204  A    between atoms: _502  and  _503
REMARK  205  A    between atoms: _506  and  _508
REMARK  206  A    between atoms: _508  and  _509
REMARK  207  A    between atoms: _508  and  _511
REMARK  208  A    between atoms: _511  and  _512
REMARK  209  A    between atoms: _515  and  _517
REMARK  210  A    between atoms: _517  and  _518
REMARK  211  A    between atoms: _517  and  _520
REMARK  212  A    between atoms: _520  and  _521
REMARK  213  A    between atoms: _524  and  _526
REMARK  214  A    between atoms: _526  and  _527
REMARK  215  A    between atoms: _526  and  _529
REMARK  216  A    between atoms: _529  and  _530
REMARK  217  A    between atoms: _530  and  _531
REMARK  218  A    between atoms: _536  and  _538
REMARK  219  A    between atoms: _538  and  _539
REMARK  220  A    between atoms: _538  and  _541
REMARK  221  A    between atoms: _541  and  _542
REMARK  222  A    between atoms: _545  and  _547
REMARK  223  A    between atoms: _547  and  _548
REMARK  224  A    between atoms: _547  and  _550
REMARK  225  A    between atoms: _550  and  _551
REMARK  226  A    between atoms: _551  and  _552
REMARK  227  A    between atoms: _555  and  _557
REMARK  228  A    between atoms: _557  and  _558
REMARK  229  A    between atoms: _557  and  _560
REMARK  230  A    between atoms: _560  and  _561
REMARK  231  A    between atoms: _566  and  _568
REMARK  232  A    between atoms: _568  and  _569
REMARK  233  A    between atoms: _568  and  _571
REMARK  234  A    between atoms: _571  and  _572
REMARK  235  A    between atoms: _574  and  _576
REMARK  236  A    between atoms: _576  and  _577
REMARK  237  A    between atoms: _576  and  _579
REMARK  238  A    between atoms: _579  and  _580
REMARK  239  A    between atoms: _580  and  _581
REMARK  240  A    between atoms: _586  and  _588
REMARK  241  A    between atoms: _588  and  _589
REMARK  242  A    between atoms: _588  and  _591
REMARK  243  A    between atoms: _591  and  _592
REMARK  244  A    between atoms: _597  and  _598
REMARK  245  A    between atoms: _600  and  _602
REMARK  246  A    between atoms: _602  and  _603
REMARK  247  A    between atoms: _602  and  _605
REMARK  248  A    between atoms: _605  and  _606
REMARK  249  A    between atoms: _606  and  _607
REMARK  250  A    between atoms: _607  and  _608
REMARK  251  A    between atoms: _617  and  _619
REMARK  252  A    between atoms: _619  and  _620
REMARK  253  A    between atoms: _619  and  _622
REMARK  254  A    between atoms: _622  and  _623
REMARK  255  A    between atoms: _626  and  _628
REMARK  256  A    between atoms: _628  and  _629
REMARK  257  A    between atoms: _628  and  _631
REMARK  258  A    between atoms: _631  and  _632
REMARK  259  A    between atoms: _634  and  _636
REMARK  260  A    between atoms: _636  and  _637
REMARK  261  A    between atoms: _636  and  _639
REMARK  262  A    between atoms: _639  and  _640
REMARK  263  A    between atoms: _645  and  _647
REMARK  264  A    between atoms: _647  and  _648
REMARK  265  A    between atoms: _647  and  _650
REMARK  266  A    between atoms: _650  and  _651
REMARK  267  A    between atoms: _651  and  _652
REMARK  268  A    between atoms: _652  and  _653
REMARK  269  A    between atoms: _653  and  _654
REMARK  270  A    between atoms: _658  and  _660
REMARK  271  A    between atoms: _660  and  _661
REMARK  272  A    between atoms: _660  and  _663
REMARK  273  A    between atoms: _663  and  _664
REMARK  274  A    between atoms: _667  and  _669
REMARK  275  A    between atoms: _669  and  _670
REMARK  276  A    between atoms: _669  and  _672
REMARK  277  A    between atoms: _672  and  _673
REMARK  278  A    between atoms: _676  and  _678
REMARK  279  A    between atoms: _678  and  _679
REMARK  280  A    between atoms: _678  and  _681
REMARK  281  A    between atoms: _684  and  _686
REMARK  282  A    between atoms: _686  and  _687
REMARK  283  A    between atoms: _686  and  _689
REMARK  284  A    between atoms: _689  and  _690
REMARK                            x       y       z     vdW  Elec       q    Type
REMARK                         _______ _______ _______ _____ _____    ______ ____
ROOT
ATOM      1  O   HOH     1      63.183   7.406   8.949  0.00  0.00    +0.000 OA
ENDROOT
TORSDOF 0
REMARK  Name = ../refined-set-2016/2o4j/2o4j_pocket.pdb
REMARK  284 active torsions:
REMARK  status: ('A' for Active; 'I' for Inactive)
REMARK    1  A    between atoms: _1  and  _3
REMARK    2  A    between atoms: _3  and  _4
REMARK    3  A    between atoms: _3  and  _6
REMARK    4  A    between atoms: _6  and  _7
REMARK    5  A    between atoms: _10  and  _12
REMARK    6  A    between atoms: _12  and  _13
REMARK    7  A    between atoms: _12  and  _15
REMARK    8  A    between atoms: _15  and  _16
REMARK    9  A    between atoms: _21  and  _22
REMARK   10  A    between atoms: _24  and  _26
REMARK   11  A    between atoms: _26  and  _27
REMARK   12  A    between atoms: _26  and  _29
REMARK   13  A    between atoms: _29  and  _30
REMARK   14  A    between atoms: _34  and  _35
REMARK   15  A    between atoms: _40  and  _42
REMARK   16  A    between atoms: _42  and  _43
REMARK   17  A    between atoms: _42  and  _45
REMARK   18  A    between atoms: _45  and  _46
REMARK   19  A    between atoms: _51  and  _52
REMARK   20  A    between atoms: _54  and  _56
REMARK   21  A    between atoms: _56  and  _57
REMARK   22  A    between atoms: _56  and  _59
REMARK   23  A    between atoms: _59  and  _60
REMARK   24  A    between atoms: _66  and  _68
REMARK   25  A    between atoms: _68  and  _69
REMARK   26  A    between atoms: _68  and  _71
REMARK   27  A    between atoms: _71  and  _72
REMARK   28  A    between atoms: _78  and  _80
REMARK   29  A    between atoms: _80  and  _81
REMARK   30  A    between atoms: _80  and  _83
REMARK   31  A    between atoms: _83  and  _84
REMARK   32  A    between atoms: _84  and  _85
REMARK   33  A    between atoms: _85  and  _86
REMARK   34  A    between atoms: _95  and  _97
REMARK   35  A    between atoms: _97  and  _98
REMARK   36  A    between atoms: _97  and  _100
REMARK   37  A    between atoms: _100  and  _101
REMARK   38  A    between atoms: _101  and  _102
REMARK   39  A    between atoms: _104  and  _106
REMARK   40  A    between atoms: _106  and  _107
REMARK   41  A    between atoms: _106  and  _109
REMARK   42  A    between atoms: _109  and  _110
REMARK   43  A    between atoms: _114  and  _115
REMARK   44  A    between atoms: _120  and  _122
REMARK   45  A    between atoms: _122  and  _123
REMARK   46  A    between atoms: _122  and  _125
REMARK   47  A    between atoms: _125  and  _126
REMARK   48  A    between atoms: _131  and  _133
REMARK   49  A    between atoms: _133  and  _134
REMARK   50  A    between atoms: _133  and  _136
REMARK   51  A    between atoms: _136  and  _137
REMARK   52  A    between atoms: _140  and  _142
REMARK   53  A    between atoms: _142  and  _143
REMARK   54  A    between atoms: _146  and  _148
REMARK   55  A    between atoms: _148  and  _149
REMARK   56  A    between atoms: _148  and  _151
REMARK   57  A    between atoms: _151  and  _152
REMARK   58  A    between atoms: _155  and  _157
REMARK   59  A    between atoms: _157  and  _158
REMARK   60  A    between atoms: _157  and  _160
REMARK   61  A    between atoms: _160  and  _161
REMARK   62  A    between atoms: _164  and  _166
REMARK   63  A    between atoms: _166  and  _167
REMARK   64  A    between atoms: _166  and  _169
REMARK   65  A    between atoms: _172  and  _174
REMARK   66  A    between atoms: _174  and  _175
REMARK   67  A    between atoms: _174  and  _177
REMARK   68  A    between atoms: _177  and  _178
REMARK   69  A    between atoms: _180  and  _182
REMARK   70  A    between atoms: _182  and  _183
REMARK   71  A    between atoms: _182  and  _185
REMARK   72  A    between atoms: _185  and  _186
REMARK   73  A    between atoms: _191  and  _192
REMARK   74  A    between atoms: _194  and  _196
REMARK   75  A    between atoms: _196  and  _197
REMARK   76  A    between atoms: _196  and  _199
REMARK   77  A    between atoms: _199  and  _200
REMARK   78  A    between atoms: _202  and  _204
REMARK   79  A    between atoms: _204  and  _205
REMARK   80  A    between atoms: _204  and  _207
REMARK   81  A    between atoms: _207  and  _208
REMARK   82  A    between atoms: _211  and  _213
REMARK   83  A    between atoms: _213  and  _214
REMARK   84  A    between atoms: _213  and  _216
REMARK   85  A    between atoms: _216  and  _217
REMARK   86  A    between atoms: _217  and  _218
REMARK   87  A    between atoms: _218  and  _219
REMARK   88  A    between atoms: _219  and  _220
REMARK   89  A    between atoms: _224  and  _226
REMARK   90  A    between atoms: _226  and  _227
REMARK   91  A    between atoms: _226  and  _229
REMARK   92  A    between atoms: _232  and  _234
REMARK   93  A    between atoms: _234  and  _235
REMARK   94  A    between atoms: _238  and  _240
REMARK   95  A    between atoms: _240  and  _241
REMARK   96  A    between atoms: _240  and  _243
REMARK   97  A    between atoms: _243  and  _244
REMARK   98  A    between atoms: _247  and  _249
REMARK   99  A    between atoms: _249  and  _250
REMARK  100  A    between atoms: _249  and  _252
REMARK  101  A    between atoms: _252  and  _253
REMARK  102  A    between atoms: _253  and  _254
REMARK  103  A    between atoms: _257  and  _259
REMARK  104  A    between atoms: _259  and  _260
REMARK  105  A    between atoms: _259  and  _262
REMARK  106  A    between atoms: _265  and  _267
REMARK  107  A    between atoms: _267  and  _268
REMARK  108  A    between atoms: _267  and  _270
REMARK  109  A    between atoms: _270  and  _271
REMARK  110  A    between atoms: _274  and  _276
REMARK  111  A    between atoms: _276  and  _277
REMARK  112  A    between atoms: _276  and  _279
REMARK  113  A    between atoms: _279  and  _280
REMARK  114  A    between atoms: _280  and  _281
REMARK  115  A    between atoms: _283  and  _285
REMARK  116  A    between atoms: _285  and  _286
REMARK  117  A    between atoms: _285  and  _288
REMARK  118  A    between atoms: _288  and  _289
REMARK  119  A    between atoms: _292  and  _294
REMARK  120  A    between atoms: _294  and  _295
REMARK  121  A    between atoms: _294  and  _297
REMARK  122  A    between atoms: _297  and  _298
REMARK  123  A    between atoms: _298  and  _299
REMARK  124  A    between atoms: _299  and  _300
REMARK  125  A    between atoms: _309  and  _311
REMARK  126  A    between atoms: _311  and  _312
REMARK  127  A    between atoms: _311  and  _314
REMARK  128  A    between atoms: _314  and  _315
REMARK  129  A    between atoms: _317  and  _319
REMARK  130  A    between atoms: _319  and  _320
REMARK  131  A    between atoms: _319  and  _322
REMARK  132  A    between atoms: _322  and  _323
REMARK  133  A    between atoms: _328  and  _330
REMARK  134  A    between atoms: _330  and  _331
REMARK  135  A    between atoms: _330  and  _333
REMARK  136  A    between atoms: _333  and  _334
REMARK  137  A    between atoms: _334  and  _335
REMARK  138  A    between atoms: _340  and  _342
REMARK  139  A    between atoms: _342  and  _343
REMARK  140  A    between atoms: _342  and  _345
REMARK  141  A    between atoms: _345  and  _346
REMARK  142  A    between atoms: _348  and  _350
REMARK  143  A    between atoms: _350  and  _351
REMARK  144  A    between atoms: _350  and  _353
REMARK  145  A    between atoms: _353  and  _354
REMARK  146  A    between atoms: _360  and  _362
REMARK  147  A    between atoms: _362  and  _363
REMARK  148  A    between atoms: _362  and  _365
REMARK  149  A    between atoms: _365  and  _366
REMARK  150  A    between atoms: _368  and  _370
REMARK  151  A    between atoms: _370  and  _371
REMARK  152  A    between atoms: _370  and  _373
REMARK  153  A    between atoms: _373  and  _374
REMARK  154  A    between atoms: _384  and  _386
REMARK  155  A    between atoms: _386  and  _387
REMARK  156  A    between atoms: _386  and  _389
REMARK  157  A    between atoms: _389  and  _390
REMARK  158  A    between atoms: _393  and  _395
REMARK  159  A    between atoms: _395  and  _396
REMARK  160  A    between atoms: _395  and  _398
REMARK  161  A    between atoms: _400  and  _402
REMARK  162  A    between atoms: _402  and  _403
REMARK  163  A    between atoms: _402  and  _405
REMARK  164  A    between atoms: _405  and  _406
REMARK  165  A    between atoms: _411  and  _412
REMARK  166  A    between atoms: _414  and  _416
REMARK  167  A    between atoms: _416  and  _417
REMARK  168  A    between atoms: _416  and  _419
REMARK  169  A    between atoms: _419  and  _420
REMARK  170  A    between atoms: _420  and  _421
REMARK  171  A    between atoms: _421  and  _422
REMARK  172  A    between atoms: _422  and  _423
REMARK  173  A    between atoms: _427  and  _429
REMARK  174  A    between atoms: _429  and  _430
REMARK  175  A    between atoms: _429  and  _432
REMARK  176  A    between atoms: _432  and  _433
REMARK  177  A    between atoms: _438  and  _439
REMARK  178  A    between atoms: _441  and  _443
REMARK  179  A    between atoms: _443  and  _444
REMARK  180  A    between atoms: _443  and  _446
REMARK  181  A    between atoms: _446  and  _447
REMARK  182  A    between atoms: _450  and  _452
REMARK  183  A    between atoms: _452  and  _453
REMARK  184  A    between atoms: _452  and  _455
REMARK  185  A    between atoms: _455  and  _456
REMARK  186  A    between atoms: _459  and  _461
REMARK  187  A    between atoms: _461  and  _462
REMARK  188  A    between atoms: _461  and  _464
REMARK  189  A    between atoms: _467  and  _469
REMARK  190  A    between atoms: _469  and  _470
REMARK  191  A    between atoms: _469  and  _472
REMARK  192  A    between atoms: _472  and  _473
REMARK  193  A    between atoms: _475  and  _477
REMARK  194  A    between atoms: _477  and  _478
REMARK  195  A    between atoms: _481  and  _483
REMARK  196  A    between atoms: _483  and  _484
REMARK  197  A    between atoms: _486  and  _488
REMARK  198  A    between atoms: _488  and  _489
REMARK  199  A    between atoms: _488  and  _491
REMARK  200  A    between atoms: _491  and  _492
REMARK  201  A    between atoms: _497  and  _499
REMARK  202  A    between atoms: _499  and  _500
REMARK  203  A    between atoms: _499  and  _502
REMARK  204  A    between atoms: _502  and  _503
REMARK  205  A    between atoms: _506  and  _508
REMARK  206  A    between atoms: _508  and  _509
REMARK  207  A    between atoms: _508  and  _511
REMARK  208  A    between atoms: _511  and  _512
REMARK  209  A    between atoms: _515  and  _517
REMARK  210  A    between atoms: _517  and  _518
REMARK  211  A    between atoms: _517  and  _520
REMARK  212  A    between atoms: _520  and  _521
REMARK  213  A    between atoms: _524  and  _526
REMARK  214  A    between atoms: _526  and  _527
REMARK  215  A    between atoms: _526  and  _529
REMARK  216  A    between atoms: _529  and  _530
REMARK  217  A    between atoms: _530  and  _531
REMARK  218  A    between atoms: _536  and  _538
REMARK  219  A    between atoms: _538  and  _539
REMARK  220  A    between atoms: _538  and  _541
REMARK  221  A    between atoms: _541  and  _542
REMARK  222  A    between atoms: _545  and  _547
REMARK  223  A    between atoms: _547  and  _548
REMARK  224  A    between atoms: _547  and  _550
REMARK  225  A    between atoms: _550  and  _551
REMARK  226  A    between atoms: _551  and  _552
REMARK  227  A    between atoms: _555  and  _557
REMARK  228  A    between atoms: _557  and  _558
REMARK  229  A    between atoms: _557  and  _560
REMARK  230  A    between atoms: _560  and  _561
REMARK  231  A    between atoms: _566  and  _568
REMARK  232  A    between atoms: _568  and  _569
REMARK  233  A    between atoms: _568  and  _571
REMARK  234  A    between atoms: _571  and  _572
REMARK  235  A    between atoms: _574  and  _576
REMARK  236  A    between atoms: _576  and  _577
REMARK  237  A    between atoms: _576  and  _579
REMARK  238  A    between atoms: _579  and  _580
REMARK  239  A    between atoms: _580  and  _581
REMARK  240  A    between atoms: _586  and  _588
REMARK  241  A    between atoms: _588  and  _589
REMARK  242  A    between atoms: _588  and  _591
REMARK  243  A    between atoms: _591  and  _592
REMARK  244  A    between atoms: _597  and  _598
REMARK  245  A    between atoms: _600  and  _602
REMARK  246  A    between atoms: _602  and  _603
REMARK  247  A    between atoms: _602  and  _605
REMARK  248  A    between atoms: _605  and  _606
REMARK  249  A    between atoms: _606  and  _607
REMARK  250  A    between atoms: _607  and  _608
REMARK  251  A    between atoms: _617  and  _619
REMARK  252  A    between atoms: _619  and  _620
REMARK  253  A    between atoms: _619  and  _622
REMARK  254  A    between atoms: _622  and  _623
REMARK  255  A    between atoms: _626  and  _628
REMARK  256  A    between atoms: _628  and  _629
REMARK  257  A    between atoms: _628  and  _631
REMARK  258  A    between atoms: _631  and  _632
REMARK  259  A    between atoms: _634  and  _636
REMARK  260  A    between atoms: _636  and  _637
REMARK  261  A    between atoms: _636  and  _639
REMARK  262  A    between atoms: _639  and  _640
REMARK  263  A    between atoms: _645  and  _647
REMARK  264  A    between atoms: _647  and  _648
REMARK  265  A    between atoms: _647  and  _650
REMARK  266  A    between atoms: _650  and  _651
REMARK  267  A    between atoms: _651  and  _652
REMARK  268  A    between atoms: _652  and  _653
REMARK  269  A    between atoms: _653  and  _654
REMARK  270  A    between atoms: _658  and  _660
REMARK  271  A    between atoms: _660  and  _661
REMARK  272  A    between atoms: _660  and  _663
REMARK  273  A    between atoms: _663  and  _664
REMARK  274  A    between atoms: _667  and  _669
REMARK  275  A    between atoms: _669  and  _670
REMARK  276  A    between atoms: _669  and  _672
REMARK  277  A    between atoms: _672  and  _673
REMARK  278  A    between atoms: _676  and  _678
REMARK  279  A    between atoms: _678  and  _679
REMARK  280  A    between atoms: _678  and  _681
REMARK  281  A    between atoms: _684  and  _686
REMARK  282  A    between atoms: _686  and  _687
REMARK  283  A    between atoms: _686  and  _689
REMARK  284  A    between atoms: _689  and  _690
REMARK                            x       y       z     vdW  Elec       q    Type
REMARK                         _______ _______ _______ _____ _____    ______ ____
ROOT
ATOM      1  O   HOH     1      65.652  10.758   7.396  0.00  0.00    +0.000 OA
ENDROOT
TORSDOF 0
REMARK  Name = ../refined-set-2016/2o4j/2o4j_pocket.pdb
REMARK  284 active torsions:
REMARK  status: ('A' for Active; 'I' for Inactive)
REMARK    1  A    between atoms: _1  and  _3
REMARK    2  A    between atoms: _3  and  _4
REMARK    3  A    between atoms: _3  and  _6
REMARK    4  A    between atoms: _6  and  _7
REMARK    5  A    between atoms: _10  and  _12
REMARK    6  A    between atoms: _12  and  _13
REMARK    7  A    between atoms: _12  and  _15
REMARK    8  A    between atoms: _15  and  _16
REMARK    9  A    between atoms: _21  and  _22
REMARK   10  A    between atoms: _24  and  _26
REMARK   11  A    between atoms: _26  and  _27
REMARK   12  A    between atoms: _26  and  _29
REMARK   13  A    between atoms: _29  and  _30
REMARK   14  A    between atoms: _34  and  _35
REMARK   15  A    between atoms: _40  and  _42
REMARK   16  A    between atoms: _42  and  _43
REMARK   17  A    between atoms: _42  and  _45
REMARK   18  A    between atoms: _45  and  _46
REMARK   19  A    between atoms: _51  and  _52
REMARK   20  A    between atoms: _54  and  _56
REMARK   21  A    between atoms: _56  and  _57
REMARK   22  A    between atoms: _56  and  _59
REMARK   23  A    between atoms: _59  and  _60
REMARK   24  A    between atoms: _66  and  _68
REMARK   25  A    between atoms: _68  and  _69
REMARK   26  A    between atoms: _68  and  _71
REMARK   27  A    between atoms: _71  and  _72
REMARK   28  A    between atoms: _78  and  _80
REMARK   29  A    between atoms: _80  and  _81
REMARK   30  A    between atoms: _80  and  _83
REMARK   31  A    between atoms: _83  and  _84
REMARK   32  A    between atoms: _84  and  _85
REMARK   33  A    between atoms: _85  and  _86
REMARK   34  A    between atoms: _95  and  _97
REMARK   35  A    between atoms: _97  and  _98
REMARK   36  A    between atoms: _97  and  _100
REMARK   37  A    between atoms: _100  and  _101
REMARK   38  A    between atoms: _101  and  _102
REMARK   39  A    between atoms: _104  and  _106
REMARK   40  A    between atoms: _106  and  _107
REMARK   41  A    between atoms: _106  and  _109
REMARK   42  A    between atoms: _109  and  _110
REMARK   43  A    between atoms: _114  and  _115
REMARK   44  A    between atoms: _120  and  _122
REMARK   45  A    between atoms: _122  and  _123
REMARK   46  A    between atoms: _122  and  _125
REMARK   47  A    between atoms: _125  and  _126
REMARK   48  A    between atoms: _131  and  _133
REMARK   49  A    between atoms: _133  and  _134
REMARK   50  A    between atoms: _133  and  _136
REMARK   51  A    between atoms: _136  and  _137
REMARK   52  A    between atoms: _140  and  _142
REMARK   53  A    between atoms: _142  and  _143
REMARK   54  A    between atoms: _146  and  _148
REMARK   55  A    between atoms: _148  and  _149
REMARK   56  A    between atoms: _148  and  _151
REMARK   57  A    between atoms: _151  and  _152
REMARK   58  A    between atoms: _155  and  _157
REMARK   59  A    between atoms: _157  and  _158
REMARK   60  A    between atoms: _157  and  _160
REMARK   61  A    between atoms: _160  and  _161
REMARK   62  A    between atoms: _164  and  _166
REMARK   63  A    between atoms: _166  and  _167
REMARK   64  A    between atoms: _166  and  _169
REMARK   65  A    between atoms: _172  and  _174
REMARK   66  A    between atoms: _174  and  _175
REMARK   67  A    between atoms: _174  and  _177
REMARK   68  A    between atoms: _177  and  _178
REMARK   69  A    between atoms: _180  and  _182
REMARK   70  A    between atoms: _182  and  _183
REMARK   71  A    between atoms: _182  and  _185
REMARK   72  A    between atoms: _185  and  _186
REMARK   73  A    between atoms: _191  and  _192
REMARK   74  A    between atoms: _194  and  _196
REMARK   75  A    between atoms: _196  and  _197
REMARK   76  A    between atoms: _196  and  _199
REMARK   77  A    between atoms: _199  and  _200
REMARK   78  A    between atoms: _202  and  _204
REMARK   79  A    between atoms: _204  and  _205
REMARK   80  A    between atoms: _204  and  _207
REMARK   81  A    between atoms: _207  and  _208
REMARK   82  A    between atoms: _211  and  _213
REMARK   83  A    between atoms: _213  and  _214
REMARK   84  A    between atoms: _213  and  _216
REMARK   85  A    between atoms: _216  and  _217
REMARK   86  A    between atoms: _217  and  _218
REMARK   87  A    between atoms: _218  and  _219
REMARK   88  A    between atoms: _219  and  _220
REMARK   89  A    between atoms: _224  and  _226
REMARK   90  A    between atoms: _226  and  _227
REMARK   91  A    between atoms: _226  and  _229
REMARK   92  A    between atoms: _232  and  _234
REMARK   93  A    between atoms: _234  and  _235
REMARK   94  A    between atoms: _238  and  _240
REMARK   95  A    between atoms: _240  and  _241
REMARK   96  A    between atoms: _240  and  _243
REMARK   97  A    between atoms: _243  and  _244
REMARK   98  A    between atoms: _247  and  _249
REMARK   99  A    between atoms: _249  and  _250
REMARK  100  A    between atoms: _249  and  _252
REMARK  101  A    between atoms: _252  and  _253
REMARK  102  A    between atoms: _253  and  _254
REMARK  103  A    between atoms: _257  and  _259
REMARK  104  A    between atoms: _259  and  _260
REMARK  105  A    between atoms: _259  and  _262
REMARK  106  A    between atoms: _265  and  _267
REMARK  107  A    between atoms: _267  and  _268
REMARK  108  A    between atoms: _267  and  _270
REMARK  109  A    between atoms: _270  and  _271
REMARK  110  A    between atoms: _274  and  _276
REMARK  111  A    between atoms: _276  and  _277
REMARK  112  A    between atoms: _276  and  _279
REMARK  113  A    between atoms: _279  and  _280
REMARK  114  A    between atoms: _280  and  _281
REMARK  115  A    between atoms: _283  and  _285
REMARK  116  A    between atoms: _285  and  _286
REMARK  117  A    between atoms: _285  and  _288
REMARK  118  A    between atoms: _288  and  _289
REMARK  119  A    between atoms: _292  and  _294
REMARK  120  A    between atoms: _294  and  _295
REMARK  121  A    between atoms: _294  and  _297
REMARK  122  A    between atoms: _297  and  _298
REMARK  123  A    between atoms: _298  and  _299
REMARK  124  A    between atoms: _299  and  _300
REMARK  125  A    between atoms: _309  and  _311
REMARK  126  A    between atoms: _311  and  _312
REMARK  127  A    between atoms: _311  and  _314
REMARK  128  A    between atoms: _314  and  _315
REMARK  129  A    between atoms: _317  and  _319
REMARK  130  A    between atoms: _319  and  _320
REMARK  131  A    between atoms: _319  and  _322
REMARK  132  A    between atoms: _322  and  _323
REMARK  133  A    between atoms: _328  and  _330
REMARK  134  A    between atoms: _330  and  _331
REMARK  135  A    between atoms: _330  and  _333
REMARK  136  A    between atoms: _333  and  _334
REMARK  137  A    between atoms: _334  and  _335
REMARK  138  A    between atoms: _340  and  _342
REMARK  139  A    between atoms: _342  and  _343
REMARK  140  A    between atoms: _342  and  _345
REMARK  141  A    between atoms: _345  and  _346
REMARK  142  A    between atoms: _348  and  _350
REMARK  143  A    between atoms: _350  and  _351
REMARK  144  A    between atoms: _350  and  _353
REMARK  145  A    between atoms: _353  and  _354
REMARK  146  A    between atoms: _360  and  _362
REMARK  147  A    between atoms: _362  and  _363
REMARK  148  A    between atoms: _362  and  _365
REMARK  149  A    between atoms: _365  and  _366
REMARK  150  A    between atoms: _368  and  _370
REMARK  151  A    between atoms: _370  and  _371
REMARK  152  A    between atoms: _370  and  _373
REMARK  153  A    between atoms: _373  and  _374
REMARK  154  A    between atoms: _384  and  _386
REMARK  155  A    between atoms: _386  and  _387
REMARK  156  A    between atoms: _386  and  _389
REMARK  157  A    between atoms: _389  and  _390
REMARK  158  A    between atoms: _393  and  _395
REMARK  159  A    between atoms: _395  and  _396
REMARK  160  A    between atoms: _395  and  _398
REMARK  161  A    between atoms: _400  and  _402
REMARK  162  A    between atoms: _402  and  _403
REMARK  163  A    between atoms: _402  and  _405
REMARK  164  A    between atoms: _405  and  _406
REMARK  165  A    between atoms: _411  and  _412
REMARK  166  A    between atoms: _414  and  _416
REMARK  167  A    between atoms: _416  and  _417
REMARK  168  A    between atoms: _416  and  _419
REMARK  169  A    between atoms: _419  and  _420
REMARK  170  A    between atoms: _420  and  _421
REMARK  171  A    between atoms: _421  and  _422
REMARK  172  A    between atoms: _422  and  _423
REMARK  173  A    between atoms: _427  and  _429
REMARK  174  A    between atoms: _429  and  _430
REMARK  175  A    between atoms: _429  and  _432
REMARK  176  A    between atoms: _432  and  _433
REMARK  177  A    between atoms: _438  and  _439
REMARK  178  A    between atoms: _441  and  _443
REMARK  179  A    between atoms: _443  and  _444
REMARK  180  A    between atoms: _443  and  _446
REMARK  181  A    between atoms: _446  and  _447
REMARK  182  A    between atoms: _450  and  _452
REMARK  183  A    between atoms: _452  and  _453
REMARK  184  A    between atoms: _452  and  _455
REMARK  185  A    between atoms: _455  and  _456
REMARK  186  A    between atoms: _459  and  _461
REMARK  187  A    between atoms: _461  and  _462
REMARK  188  A    between atoms: _461  and  _464
REMARK  189  A    between atoms: _467  and  _469
REMARK  190  A    between atoms: _469  and  _470
REMARK  191  A    between atoms: _469  and  _472
REMARK  192  A    between atoms: _472  and  _473
REMARK  193  A    between atoms: _475  and  _477
REMARK  194  A    between atoms: _477  and  _478
REMARK  195  A    between atoms: _481  and  _483
REMARK  196  A    between atoms: _483  and  _484
REMARK  197  A    between atoms: _486  and  _488
REMARK  198  A    between atoms: _488  and  _489
REMARK  199  A    between atoms: _488  and  _491
REMARK  200  A    between atoms: _491  and  _492
REMARK  201  A    between atoms: _497  and  _499
REMARK  202  A    between atoms: _499  and  _500
REMARK  203  A    between atoms: _499  and  _502
REMARK  204  A    between atoms: _502  and  _503
REMARK  205  A    between atoms: _506  and  _508
REMARK  206  A    between atoms: _508  and  _509
REMARK  207  A    between atoms: _508  and  _511
REMARK  208  A    between atoms: _511  and  _512
REMARK  209  A    between atoms: _515  and  _517
REMARK  210  A    between atoms: _517  and  _518
REMARK  211  A    between atoms: _517  and  _520
REMARK  212  A    between atoms: _520  and  _521
REMARK  213  A    between atoms: _524  and  _526
REMARK  214  A    between atoms: _526  and  _527
REMARK  215  A    between atoms: _526  and  _529
REMARK  216  A    between atoms: _529  and  _530
REMARK  217  A    between atoms: _530  and  _531
REMARK  218  A    between atoms: _536  and  _538
REMARK  219  A    between atoms: _538  and  _539
REMARK  220  A    between atoms: _538  and  _541
REMARK  221  A    between atoms: _541  and  _542
REMARK  222  A    between atoms: _545  and  _547
REMARK  223  A    between atoms: _547  and  _548
REMARK  224  A    between atoms: _547  and  _550
REMARK  225  A    between atoms: _550  and  _551
REMARK  226  A    between atoms: _551  and  _552
REMARK  227  A    between atoms: _555  and  _557
REMARK  228  A    between atoms: _557  and  _558
REMARK  229  A    between atoms: _557  and  _560
REMARK  230  A    between atoms: _560  and  _561
REMARK  231  A    between atoms: _566  and  _568
REMARK  232  A    between atoms: _568  and  _569
REMARK  233  A    between atoms: _568  and  _571
REMARK  234  A    between atoms: _571  and  _572
REMARK  235  A    between atoms: _574  and  _576
REMARK  236  A    between atoms: _576  and  _577
REMARK  237  A    between atoms: _576  and  _579
REMARK  238  A    between atoms: _579  and  _580
REMARK  239  A    between atoms: _580  and  _581
REMARK  240  A    between atoms: _586  and  _588
REMARK  241  A    between atoms: _588  and  _589
REMARK  242  A    between atoms: _588  and  _591
REMARK  243  A    between atoms: _591  and  _592
REMARK  244  A    between atoms: _597  and  _598
REMARK  245  A    between atoms: _600  and  _602
REMARK  246  A    between atoms: _602  and  _603
REMARK  247  A    between atoms: _602  and  _605
REMARK  248  A    between atoms: _605  and  _606
REMARK  249  A    between atoms: _606  and  _607
REMARK  250  A    between atoms: _607  and  _608
REMARK  251  A    between atoms: _617  and  _619
REMARK  252  A    between atoms: _619  and  _620
REMARK  253  A    between atoms: _619  and  _622
REMARK  254  A    between atoms: _622  and  _623
REMARK  255  A    between atoms: _626  and  _628
REMARK  256  A    between atoms: _628  and  _629
REMARK  257  A    between atoms: _628  and  _631
REMARK  258  A    between atoms: _631  and  _632
REMARK  259  A    between atoms: _634  and  _636
REMARK  260  A    between atoms: _636  and  _637
REMARK  261  A    between atoms: _636  and  _639
REMARK  262  A    between atoms: _639  and  _640
REMARK  263  A    between atoms: _645  and  _647
REMARK  264  A    between atoms: _647  and  _648
REMARK  265  A    between atoms: _647  and  _650
REMARK  266  A    between atoms: _650  and  _651
REMARK  267  A    between atoms: _651  and  _652
REMARK  268  A    between atoms: _652  and  _653
REMARK  269  A    between atoms: _653  and  _654
REMARK  270  A    between atoms: _658  and  _660
REMARK  271  A    between atoms: _660  and  _661
REMARK  272  A    between atoms: _660  and  _663
REMARK  273  A    between atoms: _663  and  _664
REMARK  274  A    between atoms: _667  and  _669
REMARK  275  A    between atoms: _669  and  _670
REMARK  276  A    between atoms: _669  and  _672
REMARK  277  A    between atoms: _672  and  _673
REMARK  278  A    between atoms: _676  and  _678
REMARK  279  A    between atoms: _678  and  _679
REMARK  280  A    between atoms: _678  and  _681
REMARK  281  A    between atoms: _684  and  _686
REMARK  282  A    between atoms: _686  and  _687
REMARK  283  A    between atoms: _686  and  _689
REMARK  284  A    between atoms: _689  and  _690
REMARK                            x       y       z     vdW  Elec       q    Type
REMARK                         _______ _______ _______ _____ _____    ______ ____
ROOT
ATOM      1  O   HOH     1      64.458  -9.549  -5.755  0.00  0.00    +0.000 OA
ENDROOT
TORSDOF 0
REMARK  Name = ../refined-set-2016/2o4j/2o4j_pocket.pdb
REMARK  284 active torsions:
REMARK  status: ('A' for Active; 'I' for Inactive)
REMARK    1  A    between atoms: _1  and  _3
REMARK    2  A    between atoms: _3  and  _4
REMARK    3  A    between atoms: _3  and  _6
REMARK    4  A    between atoms: _6  and  _7
REMARK    5  A    between atoms: _10  and  _12
REMARK    6  A    between atoms: _12  and  _13
REMARK    7  A    between atoms: _12  and  _15
REMARK    8  A    between atoms: _15  and  _16
REMARK    9  A    between atoms: _21  and  _22
REMARK   10  A    between atoms: _24  and  _26
REMARK   11  A    between atoms: _26  and  _27
REMARK   12  A    between atoms: _26  and  _29
REMARK   13  A    between atoms: _29  and  _30
REMARK   14  A    between atoms: _34  and  _35
REMARK   15  A    between atoms: _40  and  _42
REMARK   16  A    between atoms: _42  and  _43
REMARK   17  A    between atoms: _42  and  _45
REMARK   18  A    between atoms: _45  and  _46
REMARK   19  A    between atoms: _51  and  _52
REMARK   20  A    between atoms: _54  and  _56
REMARK   21  A    between atoms: _56  and  _57
REMARK   22  A    between atoms: _56  and  _59
REMARK   23  A    between atoms: _59  and  _60
REMARK   24  A    between atoms: _66  and  _68
REMARK   25  A    between atoms: _68  and  _69
REMARK   26  A    between atoms: _68  and  _71
REMARK   27  A    between atoms: _71  and  _72
REMARK   28  A    between atoms: _78  and  _80
REMARK   29  A    between atoms: _80  and  _81
REMARK   30  A    between atoms: _80  and  _83
REMARK   31  A    between atoms: _83  and  _84
REMARK   32  A    between atoms: _84  and  _85
REMARK   33  A    between atoms: _85  and  _86
REMARK   34  A    between atoms: _95  and  _97
REMARK   35  A    between atoms: _97  and  _98
REMARK   36  A    between atoms: _97  and  _100
REMARK   37  A    between atoms: _100  and  _101
REMARK   38  A    between atoms: _101  and  _102
REMARK   39  A    between atoms: _104  and  _106
REMARK   40  A    between atoms: _106  and  _107
REMARK   41  A    between atoms: _106  and  _109
REMARK   42  A    between atoms: _109  and  _110
REMARK   43  A    between atoms: _114  and  _115
REMARK   44  A    between atoms: _120  and  _122
REMARK   45  A    between atoms: _122  and  _123
REMARK   46  A    between atoms: _122  and  _125
REMARK   47  A    between atoms: _125  and  _126
REMARK   48  A    between atoms: _131  and  _133
REMARK   49  A    between atoms: _133  and  _134
REMARK   50  A    between atoms: _133  and  _136
REMARK   51  A    between atoms: _136  and  _137
REMARK   52  A    between atoms: _140  and  _142
REMARK   53  A    between atoms: _142  and  _143
REMARK   54  A    between atoms: _146  and  _148
REMARK   55  A    between atoms: _148  and  _149
REMARK   56  A    between atoms: _148  and  _151
REMARK   57  A    between atoms: _151  and  _152
REMARK   58  A    between atoms: _155  and  _157
REMARK   59  A    between atoms: _157  and  _158
REMARK   60  A    between atoms: _157  and  _160
REMARK   61  A    between atoms: _160  and  _161
REMARK   62  A    between atoms: _164  and  _166
REMARK   63  A    between atoms: _166  and  _167
REMARK   64  A    between atoms: _166  and  _169
REMARK   65  A    between atoms: _172  and  _174
REMARK   66  A    between atoms: _174  and  _175
REMARK   67  A    between atoms: _174  and  _177
REMARK   68  A    between atoms: _177  and  _178
REMARK   69  A    between atoms: _180  and  _182
REMARK   70  A    between atoms: _182  and  _183
REMARK   71  A    between atoms: _182  and  _185
REMARK   72  A    between atoms: _185  and  _186
REMARK   73  A    between atoms: _191  and  _192
REMARK   74  A    between atoms: _194  and  _196
REMARK   75  A    between atoms: _196  and  _197
REMARK   76  A    between atoms: _196  and  _199
REMARK   77  A    between atoms: _199  and  _200
REMARK   78  A    between atoms: _202  and  _204
REMARK   79  A    between atoms: _204  and  _205
REMARK   80  A    between atoms: _204  and  _207
REMARK   81  A    between atoms: _207  and  _208
REMARK   82  A    between atoms: _211  and  _213
REMARK   83  A    between atoms: _213  and  _214
REMARK   84  A    between atoms: _213  and  _216
REMARK   85  A    between atoms: _216  and  _217
REMARK   86  A    between atoms: _217  and  _218
REMARK   87  A    between atoms: _218  and  _219
REMARK   88  A    between atoms: _219  and  _220
REMARK   89  A    between atoms: _224  and  _226
REMARK   90  A    between atoms: _226  and  _227
REMARK   91  A    between atoms: _226  and  _229
REMARK   92  A    between atoms: _232  and  _234
REMARK   93  A    between atoms: _234  and  _235
REMARK   94  A    between atoms: _238  and  _240
REMARK   95  A    between atoms: _240  and  _241
REMARK   96  A    between atoms: _240  and  _243
REMARK   97  A    between atoms: _243  and  _244
REMARK   98  A    between atoms: _247  and  _249
REMARK   99  A    between atoms: _249  and  _250
REMARK  100  A    between atoms: _249  and  _252
REMARK  101  A    between atoms: _252  and  _253
REMARK  102  A    between atoms: _253  and  _254
REMARK  103  A    between atoms: _257  and  _259
REMARK  104  A    between atoms: _259  and  _260
REMARK  105  A    between atoms: _259  and  _262
REMARK  106  A    between atoms: _265  and  _267
REMARK  107  A    between atoms: _267  and  _268
REMARK  108  A    between atoms: _267  and  _270
REMARK  109  A    between atoms: _270  and  _271
REMARK  110  A    between atoms: _274  and  _276
REMARK  111  A    between atoms: _276  and  _277
REMARK  112  A    between atoms: _276  and  _279
REMARK  113  A    between atoms: _279  and  _280
REMARK  114  A    between atoms: _280  and  _281
REMARK  115  A    between atoms: _283  and  _285
REMARK  116  A    between atoms: _285  and  _286
REMARK  117  A    between atoms: _285  and  _288
REMARK  118  A    between atoms: _288  and  _289
REMARK  119  A    between atoms: _292  and  _294
REMARK  120  A    between atoms: _294  and  _295
REMARK  121  A    between atoms: _294  and  _297
REMARK  122  A    between atoms: _297  and  _298
REMARK  123  A    between atoms: _298  and  _299
REMARK  124  A    between atoms: _299  and  _300
REMARK  125  A    between atoms: _309  and  _311
REMARK  126  A    between atoms: _311  and  _312
REMARK  127  A    between atoms: _311  and  _314
REMARK  128  A    between atoms: _314  and  _315
REMARK  129  A    between atoms: _317  and  _319
REMARK  130  A    between atoms: _319  and  _320
REMARK  131  A    between atoms: _319  and  _322
REMARK  132  A    between atoms: _322  and  _323
REMARK  133  A    between atoms: _328  and  _330
REMARK  134  A    between atoms: _330  and  _331
REMARK  135  A    between atoms: _330  and  _333
REMARK  136  A    between atoms: _333  and  _334
REMARK  137  A    between atoms: _334  and  _335
REMARK  138  A    between atoms: _340  and  _342
REMARK  139  A    between atoms: _342  and  _343
REMARK  140  A    between atoms: _342  and  _345
REMARK  141  A    between atoms: _345  and  _346
REMARK  142  A    between atoms: _348  and  _350
REMARK  143  A    between atoms: _350  and  _351
REMARK  144  A    between atoms: _350  and  _353
REMARK  145  A    between atoms: _353  and  _354
REMARK  146  A    between atoms: _360  and  _362
REMARK  147  A    between atoms: _362  and  _363
REMARK  148  A    between atoms: _362  and  _365
REMARK  149  A    between atoms: _365  and  _366
REMARK  150  A    between atoms: _368  and  _370
REMARK  151  A    between atoms: _370  and  _371
REMARK  152  A    between atoms: _370  and  _373
REMARK  153  A    between atoms: _373  and  _374
REMARK  154  A    between atoms: _384  and  _386
REMARK  155  A    between atoms: _386  and  _387
REMARK  156  A    between atoms: _386  and  _389
REMARK  157  A    between atoms: _389  and  _390
REMARK  158  A    between atoms: _393  and  _395
REMARK  159  A    between atoms: _395  and  _396
REMARK  160  A    between atoms: _395  and  _398
REMARK  161  A    between atoms: _400  and  _402
REMARK  162  A    between atoms: _402  and  _403
REMARK  163  A    between atoms: _402  and  _405
REMARK  164  A    between atoms: _405  and  _406
REMARK  165  A    between atoms: _411  and  _412
REMARK  166  A    between atoms: _414  and  _416
REMARK  167  A    between atoms: _416  and  _417
REMARK  168  A    between atoms: _416  and  _419
REMARK  169  A    between atoms: _419  and  _420
REMARK  170  A    between atoms: _420  and  _421
REMARK  171  A    between atoms: _421  and  _422
REMARK  172  A    between atoms: _422  and  _423
REMARK  173  A    between atoms: _427  and  _429
REMARK  174  A    between atoms: _429  and  _430
REMARK  175  A    between atoms: _429  and  _432
REMARK  176  A    between atoms: _432  and  _433
REMARK  177  A    between atoms: _438  and  _439
REMARK  178  A    between atoms: _441  and  _443
REMARK  179  A    between atoms: _443  and  _444
REMARK  180  A    between atoms: _443  and  _446
REMARK  181  A    between atoms: _446  and  _447
REMARK  182  A    between atoms: _450  and  _452
REMARK  183  A    between atoms: _452  and  _453
REMARK  184  A    between atoms: _452  and  _455
REMARK  185  A    between atoms: _455  and  _456
REMARK  186  A    between atoms: _459  and  _461
REMARK  187  A    between atoms: _461  and  _462
REMARK  188  A    between atoms: _461  and  _464
REMARK  189  A    between atoms: _467  and  _469
REMARK  190  A    between atoms: _469  and  _470
REMARK  191  A    between atoms: _469  and  _472
REMARK  192  A    between atoms: _472  and  _473
REMARK  193  A    between atoms: _475  and  _477
REMARK  194  A    between atoms: _477  and  _478
REMARK  195  A    between atoms: _481  and  _483
REMARK  196  A    between atoms: _483  and  _484
REMARK  197  A    between atoms: _486  and  _488
REMARK  198  A    between atoms: _488  and  _489
REMARK  199  A    between atoms: _488  and  _491
REMARK  200  A    between atoms: _491  and  _492
REMARK  201  A    between atoms: _497  and  _499
REMARK  202  A    between atoms: _499  and  _500
REMARK  203  A    between atoms: _499  and  _502
REMARK  204  A    between atoms: _502  and  _503
REMARK  205  A    between atoms: _506  and  _508
REMARK  206  A    between atoms: _508  and  _509
REMARK  207  A    between atoms: _508  and  _511
REMARK  208  A    between atoms: _511  and  _512
REMARK  209  A    between atoms: _515  and  _517
REMARK  210  A    between atoms: _517  and  _518
REMARK  211  A    between atoms: _517  and  _520
REMARK  212  A    between atoms: _520  and  _521
REMARK  213  A    between atoms: _524  and  _526
REMARK  214  A    between atoms: _526  and  _527
REMARK  215  A    between atoms: _526  and  _529
REMARK  216  A    between atoms: _529  and  _530
REMARK  217  A    between atoms: _530  and  _531
REMARK  218  A    between atoms: _536  and  _538
REMARK  219  A    between atoms: _538  and  _539
REMARK  220  A    between atoms: _538  and  _541
REMARK  221  A    between atoms: _541  and  _542
REMARK  222  A    between atoms: _545  and  _547
REMARK  223  A    between atoms: _547  and  _548
REMARK  224  A    between atoms: _547  and  _550
REMARK  225  A    between atoms: _550  and  _551
REMARK  226  A    between atoms: _551  and  _552
REMARK  227  A    between atoms: _555  and  _557
REMARK  228  A    between atoms: _557  and  _558
REMARK  229  A    between atoms: _557  and  _560
REMARK  230  A    between atoms: _560  and  _561
REMARK  231  A    between atoms: _566  and  _568
REMARK  232  A    between atoms: _568  and  _569
REMARK  233  A    between atoms: _568  and  _571
REMARK  234  A    between atoms: _571  and  _572
REMARK  235  A    between atoms: _574  and  _576
REMARK  236  A    between atoms: _576  and  _577
REMARK  237  A    between atoms: _576  and  _579
REMARK  238  A    between atoms: _579  and  _580
REMARK  239  A    between atoms: _580  and  _581
REMARK  240  A    between atoms: _586  and  _588
REMARK  241  A    between atoms: _588  and  _589
REMARK  242  A    between atoms: _588  and  _591
REMARK  243  A    between atoms: _591  and  _592
REMARK  244  A    between atoms: _597  and  _598
REMARK  245  A    between atoms: _600  and  _602
REMARK  246  A    between atoms: _602  and  _603
REMARK  247  A    between atoms: _602  and  _605
REMARK  248  A    between atoms: _605  and  _606
REMARK  249  A    between atoms: _606  and  _607
REMARK  250  A    between atoms: _607  and  _608
REMARK  251  A    between atoms: _617  and  _619
REMARK  252  A    between atoms: _619  and  _620
REMARK  253  A    between atoms: _619  and  _622
REMARK  254  A    between atoms: _622  and  _623
REMARK  255  A    between atoms: _626  and  _628
REMARK  256  A    between atoms: _628  and  _629
REMARK  257  A    between atoms: _628  and  _631
REMARK  258  A    between atoms: _631  and  _632
REMARK  259  A    between atoms: _634  and  _636
REMARK  260  A    between atoms: _636  and  _637
REMARK  261  A    between atoms: _636  and  _639
REMARK  262  A    between atoms: _639  and  _640
REMARK  263  A    between atoms: _645  and  _647
REMARK  264  A    between atoms: _647  and  _648
REMARK  265  A    between atoms: _647  and  _650
REMARK  266  A    between atoms: _650  and  _651
REMARK  267  A    between atoms: _651  and  _652
REMARK  268  A    between atoms: _652  and  _653
REMARK  269  A    between atoms: _653  and  _654
REMARK  270  A    between atoms: _658  and  _660
REMARK  271  A    between atoms: _660  and  _661
REMARK  272  A    between atoms: _660  and  _663
REMARK  273  A    between atoms: _663  and  _664
REMARK  274  A    between atoms: _667  and  _669
REMARK  275  A    between atoms: _669  and  _670
REMARK  276  A    between atoms: _669  and  _672
REMARK  277  A    between atoms: _672  and  _673
REMARK  278  A    between atoms: _676  and  _678
REMARK  279  A    between atoms: _678  and  _679
REMARK  280  A    between atoms: _678  and  _681
REMARK  281  A    between atoms: _684  and  _686
REMARK  282  A    between atoms: _686  and  _687
REMARK  283  A    between atoms: _686  and  _689
REMARK  284  A    between atoms: _689  and  _690
REMARK                            x       y       z     vdW  Elec       q    Type
REMARK                         _______ _______ _______ _____ _____    ______ ____
ROOT
ATOM      1  O   HOH     1      66.854  -4.173 -14.928  0.00  0.00    +0.000 OA
ENDROOT
TORSDOF 0
REMARK  Name = ../refined-set-2016/2o4j/2o4j_pocket.pdb
REMARK  284 active torsions:
REMARK  status: ('A' for Active; 'I' for Inactive)
REMARK    1  A    between atoms: _1  and  _3
REMARK    2  A    between atoms: _3  and  _4
REMARK    3  A    between atoms: _3  and  _6
REMARK    4  A    between atoms: _6  and  _7
REMARK    5  A    between atoms: _10  and  _12
REMARK    6  A    between atoms: _12  and  _13
REMARK    7  A    between atoms: _12  and  _15
REMARK    8  A    between atoms: _15  and  _16
REMARK    9  A    between atoms: _21  and  _22
REMARK   10  A    between atoms: _24  and  _26
REMARK   11  A    between atoms: _26  and  _27
REMARK   12  A    between atoms: _26  and  _29
REMARK   13  A    between atoms: _29  and  _30
REMARK   14  A    between atoms: _34  and  _35
REMARK   15  A    between atoms: _40  and  _42
REMARK   16  A    between atoms: _42  and  _43
REMARK   17  A    between atoms: _42  and  _45
REMARK   18  A    between atoms: _45  and  _46
REMARK   19  A    between atoms: _51  and  _52
REMARK   20  A    between atoms: _54  and  _56
REMARK   21  A    between atoms: _56  and  _57
REMARK   22  A    between atoms: _56  and  _59
REMARK   23  A    between atoms: _59  and  _60
REMARK   24  A    between atoms: _66  and  _68
REMARK   25  A    between atoms: _68  and  _69
REMARK   26  A    between atoms: _68  and  _71
REMARK   27  A    between atoms: _71  and  _72
REMARK   28  A    between atoms: _78  and  _80
REMARK   29  A    between atoms: _80  and  _81
REMARK   30  A    between atoms: _80  and  _83
REMARK   31  A    between atoms: _83  and  _84
REMARK   32  A    between atoms: _84  and  _85
REMARK   33  A    between atoms: _85  and  _86
REMARK   34  A    between atoms: _95  and  _97
REMARK   35  A    between atoms: _97  and  _98
REMARK   36  A    between atoms: _97  and  _100
REMARK   37  A    between atoms: _100  and  _101
REMARK   38  A    between atoms: _101  and  _102
REMARK   39  A    between atoms: _104  and  _106
REMARK   40  A    between atoms: _106  and  _107
REMARK   41  A    between atoms: _106  and  _109
REMARK   42  A    between atoms: _109  and  _110
REMARK   43  A    between atoms: _114  and  _115
REMARK   44  A    between atoms: _120  and  _122
REMARK   45  A    between atoms: _122  and  _123
REMARK   46  A    between atoms: _122  and  _125
REMARK   47  A    between atoms: _125  and  _126
REMARK   48  A    between atoms: _131  and  _133
REMARK   49  A    between atoms: _133  and  _134
REMARK   50  A    between atoms: _133  and  _136
REMARK   51  A    between atoms: _136  and  _137
REMARK   52  A    between atoms: _140  and  _142
REMARK   53  A    between atoms: _142  and  _143
REMARK   54  A    between atoms: _146  and  _148
REMARK   55  A    between atoms: _148  and  _149
REMARK   56  A    between atoms: _148  and  _151
REMARK   57  A    between atoms: _151  and  _152
REMARK   58  A    between atoms: _155  and  _157
REMARK   59  A    between atoms: _157  and  _158
REMARK   60  A    between atoms: _157  and  _160
REMARK   61  A    between atoms: _160  and  _161
REMARK   62  A    between atoms: _164  and  _166
REMARK   63  A    between atoms: _166  and  _167
REMARK   64  A    between atoms: _166  and  _169
REMARK   65  A    between atoms: _172  and  _174
REMARK   66  A    between atoms: _174  and  _175
REMARK   67  A    between atoms: _174  and  _177
REMARK   68  A    between atoms: _177  and  _178
REMARK   69  A    between atoms: _180  and  _182
REMARK   70  A    between atoms: _182  and  _183
REMARK   71  A    between atoms: _182  and  _185
REMARK   72  A    between atoms: _185  and  _186
REMARK   73  A    between atoms: _191  and  _192
REMARK   74  A    between atoms: _194  and  _196
REMARK   75  A    between atoms: _196  and  _197
REMARK   76  A    between atoms: _196  and  _199
REMARK   77  A    between atoms: _199  and  _200
REMARK   78  A    between atoms: _202  and  _204
REMARK   79  A    between atoms: _204  and  _205
REMARK   80  A    between atoms: _204  and  _207
REMARK   81  A    between atoms: _207  and  _208
REMARK   82  A    between atoms: _211  and  _213
REMARK   83  A    between atoms: _213  and  _214
REMARK   84  A    between atoms: _213  and  _216
REMARK   85  A    between atoms: _216  and  _217
REMARK   86  A    between atoms: _217  and  _218
REMARK   87  A    between atoms: _218  and  _219
REMARK   88  A    between atoms: _219  and  _220
REMARK   89  A    between atoms: _224  and  _226
REMARK   90  A    between atoms: _226  and  _227
REMARK   91  A    between atoms: _226  and  _229
REMARK   92  A    between atoms: _232  and  _234
REMARK   93  A    between atoms: _234  and  _235
REMARK   94  A    between atoms: _238  and  _240
REMARK   95  A    between atoms: _240  and  _241
REMARK   96  A    between atoms: _240  and  _243
REMARK   97  A    between atoms: _243  and  _244
REMARK   98  A    between atoms: _247  and  _249
REMARK   99  A    between atoms: _249  and  _250
REMARK  100  A    between atoms: _249  and  _252
REMARK  101  A    between atoms: _252  and  _253
REMARK  102  A    between atoms: _253  and  _254
REMARK  103  A    between atoms: _257  and  _259
REMARK  104  A    between atoms: _259  and  _260
REMARK  105  A    between atoms: _259  and  _262
REMARK  106  A    between atoms: _265  and  _267
REMARK  107  A    between atoms: _267  and  _268
REMARK  108  A    between atoms: _267  and  _270
REMARK  109  A    between atoms: _270  and  _271
REMARK  110  A    between atoms: _274  and  _276
REMARK  111  A    between atoms: _276  and  _277
REMARK  112  A    between atoms: _276  and  _279
REMARK  113  A    between atoms: _279  and  _280
REMARK  114  A    between atoms: _280  and  _281
REMARK  115  A    between atoms: _283  and  _285
REMARK  116  A    between atoms: _285  and  _286
REMARK  117  A    between atoms: _285  and  _288
REMARK  118  A    between atoms: _288  and  _289
REMARK  119  A    between atoms: _292  and  _294
REMARK  120  A    between atoms: _294  and  _295
REMARK  121  A    between atoms: _294  and  _297
REMARK  122  A    between atoms: _297  and  _298
REMARK  123  A    between atoms: _298  and  _299
REMARK  124  A    between atoms: _299  and  _300
REMARK  125  A    between atoms: _309  and  _311
REMARK  126  A    between atoms: _311  and  _312
REMARK  127  A    between atoms: _311  and  _314
REMARK  128  A    between atoms: _314  and  _315
REMARK  129  A    between atoms: _317  and  _319
REMARK  130  A    between atoms: _319  and  _320
REMARK  131  A    between atoms: _319  and  _322
REMARK  132  A    between atoms: _322  and  _323
REMARK  133  A    between atoms: _328  and  _330
REMARK  134  A    between atoms: _330  and  _331
REMARK  135  A    between atoms: _330  and  _333
REMARK  136  A    between atoms: _333  and  _334
REMARK  137  A    between atoms: _334  and  _335
REMARK  138  A    between atoms: _340  and  _342
REMARK  139  A    between atoms: _342  and  _343
REMARK  140  A    between atoms: _342  and  _345
REMARK  141  A    between atoms: _345  and  _346
REMARK  142  A    between atoms: _348  and  _350
REMARK  143  A    between atoms: _350  and  _351
REMARK  144  A    between atoms: _350  and  _353
REMARK  145  A    between atoms: _353  and  _354
REMARK  146  A    between atoms: _360  and  _362
REMARK  147  A    between atoms: _362  and  _363
REMARK  148  A    between atoms: _362  and  _365
REMARK  149  A    between atoms: _365  and  _366
REMARK  150  A    between atoms: _368  and  _370
REMARK  151  A    between atoms: _370  and  _371
REMARK  152  A    between atoms: _370  and  _373
REMARK  153  A    between atoms: _373  and  _374
REMARK  154  A    between atoms: _384  and  _386
REMARK  155  A    between atoms: _386  and  _387
REMARK  156  A    between atoms: _386  and  _389
REMARK  157  A    between atoms: _389  and  _390
REMARK  158  A    between atoms: _393  and  _395
REMARK  159  A    between atoms: _395  and  _396
REMARK  160  A    between atoms: _395  and  _398
REMARK  161  A    between atoms: _400  and  _402
REMARK  162  A    between atoms: _402  and  _403
REMARK  163  A    between atoms: _402  and  _405
REMARK  164  A    between atoms: _405  and  _406
REMARK  165  A    between atoms: _411  and  _412
REMARK  166  A    between atoms: _414  and  _416
REMARK  167  A    between atoms: _416  and  _417
REMARK  168  A    between atoms: _416  and  _419
REMARK  169  A    between atoms: _419  and  _420
REMARK  170  A    between atoms: _420  and  _421
REMARK  171  A    between atoms: _421  and  _422
REMARK  172  A    between atoms: _422  and  _423
REMARK  173  A    between atoms: _427  and  _429
REMARK  174  A    between atoms: _429  and  _430
REMARK  175  A    between atoms: _429  and  _432
REMARK  176  A    between atoms: _432  and  _433
REMARK  177  A    between atoms: _438  and  _439
REMARK  178  A    between atoms: _441  and  _443
REMARK  179  A    between atoms: _443  and  _444
REMARK  180  A    between atoms: _443  and  _446
REMARK  181  A    between atoms: _446  and  _447
REMARK  182  A    between atoms: _450  and  _452
REMARK  183  A    between atoms: _452  and  _453
REMARK  184  A    between atoms: _452  and  _455
REMARK  185  A    between atoms: _455  and  _456
REMARK  186  A    between atoms: _459  and  _461
REMARK  187  A    between atoms: _461  and  _462
REMARK  188  A    between atoms: _461  and  _464
REMARK  189  A    between atoms: _467  and  _469
REMARK  190  A    between atoms: _469  and  _470
REMARK  191  A    between atoms: _469  and  _472
REMARK  192  A    between atoms: _472  and  _473
REMARK  193  A    between atoms: _475  and  _477
REMARK  194  A    between atoms: _477  and  _478
REMARK  195  A    between atoms: _481  and  _483
REMARK  196  A    between atoms: _483  and  _484
REMARK  197  A    between atoms: _486  and  _488
REMARK  198  A    between atoms: _488  and  _489
REMARK  199  A    between atoms: _488  and  _491
REMARK  200  A    between atoms: _491  and  _492
REMARK  201  A    between atoms: _497  and  _499
REMARK  202  A    between atoms: _499  and  _500
REMARK  203  A    between atoms: _499  and  _502
REMARK  204  A    between atoms: _502  and  _503
REMARK  205  A    between atoms: _506  and  _508
REMARK  206  A    between atoms: _508  and  _509
REMARK  207  A    between atoms: _508  and  _511
REMARK  208  A    between atoms: _511  and  _512
REMARK  209  A    between atoms: _515  and  _517
REMARK  210  A    between atoms: _517  and  _518
REMARK  211  A    between atoms: _517  and  _520
REMARK  212  A    between atoms: _520  and  _521
REMARK  213  A    between atoms: _524  and  _526
REMARK  214  A    between atoms: _526  and  _527
REMARK  215  A    between atoms: _526  and  _529
REMARK  216  A    between atoms: _529  and  _530
REMARK  217  A    between atoms: _530  and  _531
REMARK  218  A    between atoms: _536  and  _538
REMARK  219  A    between atoms: _538  and  _539
REMARK  220  A    between atoms: _538  and  _541
REMARK  221  A    between atoms: _541  and  _542
REMARK  222  A    between atoms: _545  and  _547
REMARK  223  A    between atoms: _547  and  _548
REMARK  224  A    between atoms: _547  and  _550
REMARK  225  A    between atoms: _550  and  _551
REMARK  226  A    between atoms: _551  and  _552
REMARK  227  A    between atoms: _555  and  _557
REMARK  228  A    between atoms: _557  and  _558
REMARK  229  A    between atoms: _557  and  _560
REMARK  230  A    between atoms: _560  and  _561
REMARK  231  A    between atoms: _566  and  _568
REMARK  232  A    between atoms: _568  and  _569
REMARK  233  A    between atoms: _568  and  _571
REMARK  234  A    between atoms: _571  and  _572
REMARK  235  A    between atoms: _574  and  _576
REMARK  236  A    between atoms: _576  and  _577
REMARK  237  A    between atoms: _576  and  _579
REMARK  238  A    between atoms: _579  and  _580
REMARK  239  A    between atoms: _580  and  _581
REMARK  240  A    between atoms: _586  and  _588
REMARK  241  A    between atoms: _588  and  _589
REMARK  242  A    between atoms: _588  and  _591
REMARK  243  A    between atoms: _591  and  _592
REMARK  244  A    between atoms: _597  and  _598
REMARK  245  A    between atoms: _600  and  _602
REMARK  246  A    between atoms: _602  and  _603
REMARK  247  A    between atoms: _602  and  _605
REMARK  248  A    between atoms: _605  and  _606
REMARK  249  A    between atoms: _606  and  _607
REMARK  250  A    between atoms: _607  and  _608
REMARK  251  A    between atoms: _617  and  _619
REMARK  252  A    between atoms: _619  and  _620
REMARK  253  A    between atoms: _619  and  _622
REMARK  254  A    between atoms: _622  and  _623
REMARK  255  A    between atoms: _626  and  _628
REMARK  256  A    between atoms: _628  and  _629
REMARK  257  A    between atoms: _628  and  _631
REMARK  258  A    between atoms: _631  and  _632
REMARK  259  A    between atoms: _634  and  _636
REMARK  260  A    between atoms: _636  and  _637
REMARK  261  A    between atoms: _636  and  _639
REMARK  262  A    between atoms: _639  and  _640
REMARK  263  A    between atoms: _645  and  _647
REMARK  264  A    between atoms: _647  and  _648
REMARK  265  A    between atoms: _647  and  _650
REMARK  266  A    between atoms: _650  and  _651
REMARK  267  A    between atoms: _651  and  _652
REMARK  268  A    between atoms: _652  and  _653
REMARK  269  A    between atoms: _653  and  _654
REMARK  270  A    between atoms: _658  and  _660
REMARK  271  A    between atoms: _660  and  _661
REMARK  272  A    between atoms: _660  and  _663
REMARK  273  A    between atoms: _663  and  _664
REMARK  274  A    between atoms: _667  and  _669
REMARK  275  A    between atoms: _669  and  _670
REMARK  276  A    between atoms: _669  and  _672
REMARK  277  A    between atoms: _672  and  _673
REMARK  278  A    between atoms: _676  and  _678
REMARK  279  A    between atoms: _678  and  _679
REMARK  280  A    between atoms: _678  and  _681
REMARK  281  A    between atoms: _684  and  _686
REMARK  282  A    between atoms: _686  and  _687
REMARK  283  A    between atoms: _686  and  _689
REMARK  284  A    between atoms: _689  and  _690
REMARK                            x       y       z     vdW  Elec       q    Type
REMARK                         _______ _______ _______ _____ _____    ______ ____
ROOT
ATOM      1  O   HOH     1      56.827  13.968   3.113  0.00  0.00    +0.000 OA
ENDROOT
TORSDOF 0
REMARK  Name = ../refined-set-2016/2o4j/2o4j_pocket.pdb
REMARK  284 active torsions:
REMARK  status: ('A' for Active; 'I' for Inactive)
REMARK    1  A    between atoms: _1  and  _3
REMARK    2  A    between atoms: _3  and  _4
REMARK    3  A    between atoms: _3  and  _6
REMARK    4  A    between atoms: _6  and  _7
REMARK    5  A    between atoms: _10  and  _12
REMARK    6  A    between atoms: _12  and  _13
REMARK    7  A    between atoms: _12  and  _15
REMARK    8  A    between atoms: _15  and  _16
REMARK    9  A    between atoms: _21  and  _22
REMARK   10  A    between atoms: _24  and  _26
REMARK   11  A    between atoms: _26  and  _27
REMARK   12  A    between atoms: _26  and  _29
REMARK   13  A    between atoms: _29  and  _30
REMARK   14  A    between atoms: _34  and  _35
REMARK   15  A    between atoms: _40  and  _42
REMARK   16  A    between atoms: _42  and  _43
REMARK   17  A    between atoms: _42  and  _45
REMARK   18  A    between atoms: _45  and  _46
REMARK   19  A    between atoms: _51  and  _52
REMARK   20  A    between atoms: _54  and  _56
REMARK   21  A    between atoms: _56  and  _57
REMARK   22  A    between atoms: _56  and  _59
REMARK   23  A    between atoms: _59  and  _60
REMARK   24  A    between atoms: _66  and  _68
REMARK   25  A    between atoms: _68  and  _69
REMARK   26  A    between atoms: _68  and  _71
REMARK   27  A    between atoms: _71  and  _72
REMARK   28  A    between atoms: _78  and  _80
REMARK   29  A    between atoms: _80  and  _81
REMARK   30  A    between atoms: _80  and  _83
REMARK   31  A    between atoms: _83  and  _84
REMARK   32  A    between atoms: _84  and  _85
REMARK   33  A    between atoms: _85  and  _86
REMARK   34  A    between atoms: _95  and  _97
REMARK   35  A    between atoms: _97  and  _98
REMARK   36  A    between atoms: _97  and  _100
REMARK   37  A    between atoms: _100  and  _101
REMARK   38  A    between atoms: _101  and  _102
REMARK   39  A    between atoms: _104  and  _106
REMARK   40  A    between atoms: _106  and  _107
REMARK   41  A    between atoms: _106  and  _109
REMARK   42  A    between atoms: _109  and  _110
REMARK   43  A    between atoms: _114  and  _115
REMARK   44  A    between atoms: _120  and  _122
REMARK   45  A    between atoms: _122  and  _123
REMARK   46  A    between atoms: _122  and  _125
REMARK   47  A    between atoms: _125  and  _126
REMARK   48  A    between atoms: _131  and  _133
REMARK   49  A    between atoms: _133  and  _134
REMARK   50  A    between atoms: _133  and  _136
REMARK   51  A    between atoms: _136  and  _137
REMARK   52  A    between atoms: _140  and  _142
REMARK   53  A    between atoms: _142  and  _143
REMARK   54  A    between atoms: _146  and  _148
REMARK   55  A    between atoms: _148  and  _149
REMARK   56  A    between atoms: _148  and  _151
REMARK   57  A    between atoms: _151  and  _152
REMARK   58  A    between atoms: _155  and  _157
REMARK   59  A    between atoms: _157  and  _158
REMARK   60  A    between atoms: _157  and  _160
REMARK   61  A    between atoms: _160  and  _161
REMARK   62  A    between atoms: _164  and  _166
REMARK   63  A    between atoms: _166  and  _167
REMARK   64  A    between atoms: _166  and  _169
REMARK   65  A    between atoms: _172  and  _174
REMARK   66  A    between atoms: _174  and  _175
REMARK   67  A    between atoms: _174  and  _177
REMARK   68  A    between atoms: _177  and  _178
REMARK   69  A    between atoms: _180  and  _182
REMARK   70  A    between atoms: _182  and  _183
REMARK   71  A    between atoms: _182  and  _185
REMARK   72  A    between atoms: _185  and  _186
REMARK   73  A    between atoms: _191  and  _192
REMARK   74  A    between atoms: _194  and  _196
REMARK   75  A    between atoms: _196  and  _197
REMARK   76  A    between atoms: _196  and  _199
REMARK   77  A    between atoms: _199  and  _200
REMARK   78  A    between atoms: _202  and  _204
REMARK   79  A    between atoms: _204  and  _205
REMARK   80  A    between atoms: _204  and  _207
REMARK   81  A    between atoms: _207  and  _208
REMARK   82  A    between atoms: _211  and  _213
REMARK   83  A    between atoms: _213  and  _214
REMARK   84  A    between atoms: _213  and  _216
REMARK   85  A    between atoms: _216  and  _217
REMARK   86  A    between atoms: _217  and  _218
REMARK   87  A    between atoms: _218  and  _219
REMARK   88  A    between atoms: _219  and  _220
REMARK   89  A    between atoms: _224  and  _226
REMARK   90  A    between atoms: _226  and  _227
REMARK   91  A    between atoms: _226  and  _229
REMARK   92  A    between atoms: _232  and  _234
REMARK   93  A    between atoms: _234  and  _235
REMARK   94  A    between atoms: _238  and  _240
REMARK   95  A    between atoms: _240  and  _241
REMARK   96  A    between atoms: _240  and  _243
REMARK   97  A    between atoms: _243  and  _244
REMARK   98  A    between atoms: _247  and  _249
REMARK   99  A    between atoms: _249  and  _250
REMARK  100  A    between atoms: _249  and  _252
REMARK  101  A    between atoms: _252  and  _253
REMARK  102  A    between atoms: _253  and  _254
REMARK  103  A    between atoms: _257  and  _259
REMARK  104  A    between atoms: _259  and  _260
REMARK  105  A    between atoms: _259  and  _262
REMARK  106  A    between atoms: _265  and  _267
REMARK  107  A    between atoms: _267  and  _268
REMARK  108  A    between atoms: _267  and  _270
REMARK  109  A    between atoms: _270  and  _271
REMARK  110  A    between atoms: _274  and  _276
REMARK  111  A    between atoms: _276  and  _277
REMARK  112  A    between atoms: _276  and  _279
REMARK  113  A    between atoms: _279  and  _280
REMARK  114  A    between atoms: _280  and  _281
REMARK  115  A    between atoms: _283  and  _285
REMARK  116  A    between atoms: _285  and  _286
REMARK  117  A    between atoms: _285  and  _288
REMARK  118  A    between atoms: _288  and  _289
REMARK  119  A    between atoms: _292  and  _294
REMARK  120  A    between atoms: _294  and  _295
REMARK  121  A    between atoms: _294  and  _297
REMARK  122  A    between atoms: _297  and  _298
REMARK  123  A    between atoms: _298  and  _299
REMARK  124  A    between atoms: _299  and  _300
REMARK  125  A    between atoms: _309  and  _311
REMARK  126  A    between atoms: _311  and  _312
REMARK  127  A    between atoms: _311  and  _314
REMARK  128  A    between atoms: _314  and  _315
REMARK  129  A    between atoms: _317  and  _319
REMARK  130  A    between atoms: _319  and  _320
REMARK  131  A    between atoms: _319  and  _322
REMARK  132  A    between atoms: _322  and  _323
REMARK  133  A    between atoms: _328  and  _330
REMARK  134  A    between atoms: _330  and  _331
REMARK  135  A    between atoms: _330  and  _333
REMARK  136  A    between atoms: _333  and  _334
REMARK  137  A    between atoms: _334  and  _335
REMARK  138  A    between atoms: _340  and  _342
REMARK  139  A    between atoms: _342  and  _343
REMARK  140  A    between atoms: _342  and  _345
REMARK  141  A    between atoms: _345  and  _346
REMARK  142  A    between atoms: _348  and  _350
REMARK  143  A    between atoms: _350  and  _351
REMARK  144  A    between atoms: _350  and  _353
REMARK  145  A    between atoms: _353  and  _354
REMARK  146  A    between atoms: _360  and  _362
REMARK  147  A    between atoms: _362  and  _363
REMARK  148  A    between atoms: _362  and  _365
REMARK  149  A    between atoms: _365  and  _366
REMARK  150  A    between atoms: _368  and  _370
REMARK  151  A    between atoms: _370  and  _371
REMARK  152  A    between atoms: _370  and  _373
REMARK  153  A    between atoms: _373  and  _374
REMARK  154  A    between atoms: _384  and  _386
REMARK  155  A    between atoms: _386  and  _387
REMARK  156  A    between atoms: _386  and  _389
REMARK  157  A    between atoms: _389  and  _390
REMARK  158  A    between atoms: _393  and  _395
REMARK  159  A    between atoms: _395  and  _396
REMARK  160  A    between atoms: _395  and  _398
REMARK  161  A    between atoms: _400  and  _402
REMARK  162  A    between atoms: _402  and  _403
REMARK  163  A    between atoms: _402  and  _405
REMARK  164  A    between atoms: _405  and  _406
REMARK  165  A    between atoms: _411  and  _412
REMARK  166  A    between atoms: _414  and  _416
REMARK  167  A    between atoms: _416  and  _417
REMARK  168  A    between atoms: _416  and  _419
REMARK  169  A    between atoms: _419  and  _420
REMARK  170  A    between atoms: _420  and  _421
REMARK  171  A    between atoms: _421  and  _422
REMARK  172  A    between atoms: _422  and  _423
REMARK  173  A    between atoms: _427  and  _429
REMARK  174  A    between atoms: _429  and  _430
REMARK  175  A    between atoms: _429  and  _432
REMARK  176  A    between atoms: _432  and  _433
REMARK  177  A    between atoms: _438  and  _439
REMARK  178  A    between atoms: _441  and  _443
REMARK  179  A    between atoms: _443  and  _444
REMARK  180  A    between atoms: _443  and  _446
REMARK  181  A    between atoms: _446  and  _447
REMARK  182  A    between atoms: _450  and  _452
REMARK  183  A    between atoms: _452  and  _453
REMARK  184  A    between atoms: _452  and  _455
REMARK  185  A    between atoms: _455  and  _456
REMARK  186  A    between atoms: _459  and  _461
REMARK  187  A    between atoms: _461  and  _462
REMARK  188  A    between atoms: _461  and  _464
REMARK  189  A    between atoms: _467  and  _469
REMARK  190  A    between atoms: _469  and  _470
REMARK  191  A    between atoms: _469  and  _472
REMARK  192  A    between atoms: _472  and  _473
REMARK  193  A    between atoms: _475  and  _477
REMARK  194  A    between atoms: _477  and  _478
REMARK  195  A    between atoms: _481  and  _483
REMARK  196  A    between atoms: _483  and  _484
REMARK  197  A    between atoms: _486  and  _488
REMARK  198  A    between atoms: _488  and  _489
REMARK  199  A    between atoms: _488  and  _491
REMARK  200  A    between atoms: _491  and  _492
REMARK  201  A    between atoms: _497  and  _499
REMARK  202  A    between atoms: _499  and  _500
REMARK  203  A    between atoms: _499  and  _502
REMARK  204  A    between atoms: _502  and  _503
REMARK  205  A    between atoms: _506  and  _508
REMARK  206  A    between atoms: _508  and  _509
REMARK  207  A    between atoms: _508  and  _511
REMARK  208  A    between atoms: _511  and  _512
REMARK  209  A    between atoms: _515  and  _517
REMARK  210  A    between atoms: _517  and  _518
REMARK  211  A    between atoms: _517  and  _520
REMARK  212  A    between atoms: _520  and  _521
REMARK  213  A    between atoms: _524  and  _526
REMARK  214  A    between atoms: _526  and  _527
REMARK  215  A    between atoms: _526  and  _529
REMARK  216  A    between atoms: _529  and  _530
REMARK  217  A    between atoms: _530  and  _531
REMARK  218  A    between atoms: _536  and  _538
REMARK  219  A    between atoms: _538  and  _539
REMARK  220  A    between atoms: _538  and  _541
REMARK  221  A    between atoms: _541  and  _542
REMARK  222  A    between atoms: _545  and  _547
REMARK  223  A    between atoms: _547  and  _548
REMARK  224  A    between atoms: _547  and  _550
REMARK  225  A    between atoms: _550  and  _551
REMARK  226  A    between atoms: _551  and  _552
REMARK  227  A    between atoms: _555  and  _557
REMARK  228  A    between atoms: _557  and  _558
REMARK  229  A    between atoms: _557  and  _560
REMARK  230  A    between atoms: _560  and  _561
REMARK  231  A    between atoms: _566  and  _568
REMARK  232  A    between atoms: _568  and  _569
REMARK  233  A    between atoms: _568  and  _571
REMARK  234  A    between atoms: _571  and  _572
REMARK  235  A    between atoms: _574  and  _576
REMARK  236  A    between atoms: _576  and  _577
REMARK  237  A    between atoms: _576  and  _579
REMARK  238  A    between atoms: _579  and  _580
REMARK  239  A    between atoms: _580  and  _581
REMARK  240  A    between atoms: _586  and  _588
REMARK  241  A    between atoms: _588  and  _589
REMARK  242  A    between atoms: _588  and  _591
REMARK  243  A    between atoms: _591  and  _592
REMARK  244  A    between atoms: _597  and  _598
REMARK  245  A    between atoms: _600  and  _602
REMARK  246  A    between atoms: _602  and  _603
REMARK  247  A    between atoms: _602  and  _605
REMARK  248  A    between atoms: _605  and  _606
REMARK  249  A    between atoms: _606  and  _607
REMARK  250  A    between atoms: _607  and  _608
REMARK  251  A    between atoms: _617  and  _619
REMARK  252  A    between atoms: _619  and  _620
REMARK  253  A    between atoms: _619  and  _622
REMARK  254  A    between atoms: _622  and  _623
REMARK  255  A    between atoms: _626  and  _628
REMARK  256  A    between atoms: _628  and  _629
REMARK  257  A    between atoms: _628  and  _631
REMARK  258  A    between atoms: _631  and  _632
REMARK  259  A    between atoms: _634  and  _636
REMARK  260  A    between atoms: _636  and  _637
REMARK  261  A    between atoms: _636  and  _639
REMARK  262  A    between atoms: _639  and  _640
REMARK  263  A    between atoms: _645  and  _647
REMARK  264  A    between atoms: _647  and  _648
REMARK  265  A    between atoms: _647  and  _650
REMARK  266  A    between atoms: _650  and  _651
REMARK  267  A    between atoms: _651  and  _652
REMARK  268  A    between atoms: _652  and  _653
REMARK  269  A    between atoms: _653  and  _654
REMARK  270  A    between atoms: _658  and  _660
REMARK  271  A    between atoms: _660  and  _661
REMARK  272  A    between atoms: _660  and  _663
REMARK  273  A    between atoms: _663  and  _664
REMARK  274  A    between atoms: _667  and  _669
REMARK  275  A    between atoms: _669  and  _670
REMARK  276  A    between atoms: _669  and  _672
REMARK  277  A    between atoms: _672  and  _673
REMARK  278  A    between atoms: _676  and  _678
REMARK  279  A    between atoms: _678  and  _679
REMARK  280  A    between atoms: _678  and  _681
REMARK  281  A    between atoms: _684  and  _686
REMARK  282  A    between atoms: _686  and  _687
REMARK  283  A    between atoms: _686  and  _689
REMARK  284  A    between atoms: _689  and  _690
REMARK                            x       y       z     vdW  Elec       q    Type
REMARK                         _______ _______ _______ _____ _____    ______ ____
ROOT
ATOM      1  O   HOH     1      61.174  -7.665  -5.282  0.00  0.00    +0.000 OA
ENDROOT
TORSDOF 0
REMARK  Name = ../refined-set-2016/2o4j/2o4j_pocket.pdb
REMARK  284 active torsions:
REMARK  status: ('A' for Active; 'I' for Inactive)
REMARK    1  A    between atoms: _1  and  _3
REMARK    2  A    between atoms: _3  and  _4
REMARK    3  A    between atoms: _3  and  _6
REMARK    4  A    between atoms: _6  and  _7
REMARK    5  A    between atoms: _10  and  _12
REMARK    6  A    between atoms: _12  and  _13
REMARK    7  A    between atoms: _12  and  _15
REMARK    8  A    between atoms: _15  and  _16
REMARK    9  A    between atoms: _21  and  _22
REMARK   10  A    between atoms: _24  and  _26
REMARK   11  A    between atoms: _26  and  _27
REMARK   12  A    between atoms: _26  and  _29
REMARK   13  A    between atoms: _29  and  _30
REMARK   14  A    between atoms: _34  and  _35
REMARK   15  A    between atoms: _40  and  _42
REMARK   16  A    between atoms: _42  and  _43
REMARK   17  A    between atoms: _42  and  _45
REMARK   18  A    between atoms: _45  and  _46
REMARK   19  A    between atoms: _51  and  _52
REMARK   20  A    between atoms: _54  and  _56
REMARK   21  A    between atoms: _56  and  _57
REMARK   22  A    between atoms: _56  and  _59
REMARK   23  A    between atoms: _59  and  _60
REMARK   24  A    between atoms: _66  and  _68
REMARK   25  A    between atoms: _68  and  _69
REMARK   26  A    between atoms: _68  and  _71
REMARK   27  A    between atoms: _71  and  _72
REMARK   28  A    between atoms: _78  and  _80
REMARK   29  A    between atoms: _80  and  _81
REMARK   30  A    between atoms: _80  and  _83
REMARK   31  A    between atoms: _83  and  _84
REMARK   32  A    between atoms: _84  and  _85
REMARK   33  A    between atoms: _85  and  _86
REMARK   34  A    between atoms: _95  and  _97
REMARK   35  A    between atoms: _97  and  _98
REMARK   36  A    between atoms: _97  and  _100
REMARK   37  A    between atoms: _100  and  _101
REMARK   38  A    between atoms: _101  and  _102
REMARK   39  A    between atoms: _104  and  _106
REMARK   40  A    between atoms: _106  and  _107
REMARK   41  A    between atoms: _106  and  _109
REMARK   42  A    between atoms: _109  and  _110
REMARK   43  A    between atoms: _114  and  _115
REMARK   44  A    between atoms: _120  and  _122
REMARK   45  A    between atoms: _122  and  _123
REMARK   46  A    between atoms: _122  and  _125
REMARK   47  A    between atoms: _125  and  _126
REMARK   48  A    between atoms: _131  and  _133
REMARK   49  A    between atoms: _133  and  _134
REMARK   50  A    between atoms: _133  and  _136
REMARK   51  A    between atoms: _136  and  _137
REMARK   52  A    between atoms: _140  and  _142
REMARK   53  A    between atoms: _142  and  _143
REMARK   54  A    between atoms: _146  and  _148
REMARK   55  A    between atoms: _148  and  _149
REMARK   56  A    between atoms: _148  and  _151
REMARK   57  A    between atoms: _151  and  _152
REMARK   58  A    between atoms: _155  and  _157
REMARK   59  A    between atoms: _157  and  _158
REMARK   60  A    between atoms: _157  and  _160
REMARK   61  A    between atoms: _160  and  _161
REMARK   62  A    between atoms: _164  and  _166
REMARK   63  A    between atoms: _166  and  _167
REMARK   64  A    between atoms: _166  and  _169
REMARK   65  A    between atoms: _172  and  _174
REMARK   66  A    between atoms: _174  and  _175
REMARK   67  A    between atoms: _174  and  _177
REMARK   68  A    between atoms: _177  and  _178
REMARK   69  A    between atoms: _180  and  _182
REMARK   70  A    between atoms: _182  and  _183
REMARK   71  A    between atoms: _182  and  _185
REMARK   72  A    between atoms: _185  and  _186
REMARK   73  A    between atoms: _191  and  _192
REMARK   74  A    between atoms: _194  and  _196
REMARK   75  A    between atoms: _196  and  _197
REMARK   76  A    between atoms: _196  and  _199
REMARK   77  A    between atoms: _199  and  _200
REMARK   78  A    between atoms: _202  and  _204
REMARK   79  A    between atoms: _204  and  _205
REMARK   80  A    between atoms: _204  and  _207
REMARK   81  A    between atoms: _207  and  _208
REMARK   82  A    between atoms: _211  and  _213
REMARK   83  A    between atoms: _213  and  _214
REMARK   84  A    between atoms: _213  and  _216
REMARK   85  A    between atoms: _216  and  _217
REMARK   86  A    between atoms: _217  and  _218
REMARK   87  A    between atoms: _218  and  _219
REMARK   88  A    between atoms: _219  and  _220
REMARK   89  A    between atoms: _224  and  _226
REMARK   90  A    between atoms: _226  and  _227
REMARK   91  A    between atoms: _226  and  _229
REMARK   92  A    between atoms: _232  and  _234
REMARK   93  A    between atoms: _234  and  _235
REMARK   94  A    between atoms: _238  and  _240
REMARK   95  A    between atoms: _240  and  _241
REMARK   96  A    between atoms: _240  and  _243
REMARK   97  A    between atoms: _243  and  _244
REMARK   98  A    between atoms: _247  and  _249
REMARK   99  A    between atoms: _249  and  _250
REMARK  100  A    between atoms: _249  and  _252
REMARK  101  A    between atoms: _252  and  _253
REMARK  102  A    between atoms: _253  and  _254
REMARK  103  A    between atoms: _257  and  _259
REMARK  104  A    between atoms: _259  and  _260
REMARK  105  A    between atoms: _259  and  _262
REMARK  106  A    between atoms: _265  and  _267
REMARK  107  A    between atoms: _267  and  _268
REMARK  108  A    between atoms: _267  and  _270
REMARK  109  A    between atoms: _270  and  _271
REMARK  110  A    between atoms: _274  and  _276
REMARK  111  A    between atoms: _276  and  _277
REMARK  112  A    between atoms: _276  and  _279
REMARK  113  A    between atoms: _279  and  _280
REMARK  114  A    between atoms: _280  and  _281
REMARK  115  A    between atoms: _283  and  _285
REMARK  116  A    between atoms: _285  and  _286
REMARK  117  A    between atoms: _285  and  _288
REMARK  118  A    between atoms: _288  and  _289
REMARK  119  A    between atoms: _292  and  _294
REMARK  120  A    between atoms: _294  and  _295
REMARK  121  A    between atoms: _294  and  _297
REMARK  122  A    between atoms: _297  and  _298
REMARK  123  A    between atoms: _298  and  _299
REMARK  124  A    between atoms: _299  and  _300
REMARK  125  A    between atoms: _309  and  _311
REMARK  126  A    between atoms: _311  and  _312
REMARK  127  A    between atoms: _311  and  _314
REMARK  128  A    between atoms: _314  and  _315
REMARK  129  A    between atoms: _317  and  _319
REMARK  130  A    between atoms: _319  and  _320
REMARK  131  A    between atoms: _319  and  _322
REMARK  132  A    between atoms: _322  and  _323
REMARK  133  A    between atoms: _328  and  _330
REMARK  134  A    between atoms: _330  and  _331
REMARK  135  A    between atoms: _330  and  _333
REMARK  136  A    between atoms: _333  and  _334
REMARK  137  A    between atoms: _334  and  _335
REMARK  138  A    between atoms: _340  and  _342
REMARK  139  A    between atoms: _342  and  _343
REMARK  140  A    between atoms: _342  and  _345
REMARK  141  A    between atoms: _345  and  _346
REMARK  142  A    between atoms: _348  and  _350
REMARK  143  A    between atoms: _350  and  _351
REMARK  144  A    between atoms: _350  and  _353
REMARK  145  A    between atoms: _353  and  _354
REMARK  146  A    between atoms: _360  and  _362
REMARK  147  A    between atoms: _362  and  _363
REMARK  148  A    between atoms: _362  and  _365
REMARK  149  A    between atoms: _365  and  _366
REMARK  150  A    between atoms: _368  and  _370
REMARK  151  A    between atoms: _370  and  _371
REMARK  152  A    between atoms: _370  and  _373
REMARK  153  A    between atoms: _373  and  _374
REMARK  154  A    between atoms: _384  and  _386
REMARK  155  A    between atoms: _386  and  _387
REMARK  156  A    between atoms: _386  and  _389
REMARK  157  A    between atoms: _389  and  _390
REMARK  158  A    between atoms: _393  and  _395
REMARK  159  A    between atoms: _395  and  _396
REMARK  160  A    between atoms: _395  and  _398
REMARK  161  A    between atoms: _400  and  _402
REMARK  162  A    between atoms: _402  and  _403
REMARK  163  A    between atoms: _402  and  _405
REMARK  164  A    between atoms: _405  and  _406
REMARK  165  A    between atoms: _411  and  _412
REMARK  166  A    between atoms: _414  and  _416
REMARK  167  A    between atoms: _416  and  _417
REMARK  168  A    between atoms: _416  and  _419
REMARK  169  A    between atoms: _419  and  _420
REMARK  170  A    between atoms: _420  and  _421
REMARK  171  A    between atoms: _421  and  _422
REMARK  172  A    between atoms: _422  and  _423
REMARK  173  A    between atoms: _427  and  _429
REMARK  174  A    between atoms: _429  and  _430
REMARK  175  A    between atoms: _429  and  _432
REMARK  176  A    between atoms: _432  and  _433
REMARK  177  A    between atoms: _438  and  _439
REMARK  178  A    between atoms: _441  and  _443
REMARK  179  A    between atoms: _443  and  _444
REMARK  180  A    between atoms: _443  and  _446
REMARK  181  A    between atoms: _446  and  _447
REMARK  182  A    between atoms: _450  and  _452
REMARK  183  A    between atoms: _452  and  _453
REMARK  184  A    between atoms: _452  and  _455
REMARK  185  A    between atoms: _455  and  _456
REMARK  186  A    between atoms: _459  and  _461
REMARK  187  A    between atoms: _461  and  _462
REMARK  188  A    between atoms: _461  and  _464
REMARK  189  A    between atoms: _467  and  _469
REMARK  190  A    between atoms: _469  and  _470
REMARK  191  A    between atoms: _469  and  _472
REMARK  192  A    between atoms: _472  and  _473
REMARK  193  A    between atoms: _475  and  _477
REMARK  194  A    between atoms: _477  and  _478
REMARK  195  A    between atoms: _481  and  _483
REMARK  196  A    between atoms: _483  and  _484
REMARK  197  A    between atoms: _486  and  _488
REMARK  198  A    between atoms: _488  and  _489
REMARK  199  A    between atoms: _488  and  _491
REMARK  200  A    between atoms: _491  and  _492
REMARK  201  A    between atoms: _497  and  _499
REMARK  202  A    between atoms: _499  and  _500
REMARK  203  A    between atoms: _499  and  _502
REMARK  204  A    between atoms: _502  and  _503
REMARK  205  A    between atoms: _506  and  _508
REMARK  206  A    between atoms: _508  and  _509
REMARK  207  A    between atoms: _508  and  _511
REMARK  208  A    between atoms: _511  and  _512
REMARK  209  A    between atoms: _515  and  _517
REMARK  210  A    between atoms: _517  and  _518
REMARK  211  A    between atoms: _517  and  _520
REMARK  212  A    between atoms: _520  and  _521
REMARK  213  A    between atoms: _524  and  _526
REMARK  214  A    between atoms: _526  and  _527
REMARK  215  A    between atoms: _526  and  _529
REMARK  216  A    between atoms: _529  and  _530
REMARK  217  A    between atoms: _530  and  _531
REMARK  218  A    between atoms: _536  and  _538
REMARK  219  A    between atoms: _538  and  _539
REMARK  220  A    between atoms: _538  and  _541
REMARK  221  A    between atoms: _541  and  _542
REMARK  222  A    between atoms: _545  and  _547
REMARK  223  A    between atoms: _547  and  _548
REMARK  224  A    between atoms: _547  and  _550
REMARK  225  A    between atoms: _550  and  _551
REMARK  226  A    between atoms: _551  and  _552
REMARK  227  A    between atoms: _555  and  _557
REMARK  228  A    between atoms: _557  and  _558
REMARK  229  A    between atoms: _557  and  _560
REMARK  230  A    between atoms: _560  and  _561
REMARK  231  A    between atoms: _566  and  _568
REMARK  232  A    between atoms: _568  and  _569
REMARK  233  A    between atoms: _568  and  _571
REMARK  234  A    between atoms: _571  and  _572
REMARK  235  A    between atoms: _574  and  _576
REMARK  236  A    between atoms: _576  and  _577
REMARK  237  A    between atoms: _576  and  _579
REMARK  238  A    between atoms: _579  and  _580
REMARK  239  A    between atoms: _580  and  _581
REMARK  240  A    between atoms: _586  and  _588
REMARK  241  A    between atoms: _588  and  _589
REMARK  242  A    between atoms: _588  and  _591
REMARK  243  A    between atoms: _591  and  _592
REMARK  244  A    between atoms: _597  and  _598
REMARK  245  A    between atoms: _600  and  _602
REMARK  246  A    between atoms: _602  and  _603
REMARK  247  A    between atoms: _602  and  _605
REMARK  248  A    between atoms: _605  and  _606
REMARK  249  A    between atoms: _606  and  _607
REMARK  250  A    between atoms: _607  and  _608
REMARK  251  A    between atoms: _617  and  _619
REMARK  252  A    between atoms: _619  and  _620
REMARK  253  A    between atoms: _619  and  _622
REMARK  254  A    between atoms: _622  and  _623
REMARK  255  A    between atoms: _626  and  _628
REMARK  256  A    between atoms: _628  and  _629
REMARK  257  A    between atoms: _628  and  _631
REMARK  258  A    between atoms: _631  and  _632
REMARK  259  A    between atoms: _634  and  _636
REMARK  260  A    between atoms: _636  and  _637
REMARK  261  A    between atoms: _636  and  _639
REMARK  262  A    between atoms: _639  and  _640
REMARK  263  A    between atoms: _645  and  _647
REMARK  264  A    between atoms: _647  and  _648
REMARK  265  A    between atoms: _647  and  _650
REMARK  266  A    between atoms: _650  and  _651
REMARK  267  A    between atoms: _651  and  _652
REMARK  268  A    between atoms: _652  and  _653
REMARK  269  A    between atoms: _653  and  _654
REMARK  270  A    between atoms: _658  and  _660
REMARK  271  A    between atoms: _660  and  _661
REMARK  272  A    between atoms: _660  and  _663
REMARK  273  A    between atoms: _663  and  _664
REMARK  274  A    between atoms: _667  and  _669
REMARK  275  A    between atoms: _669  and  _670
REMARK  276  A    between atoms: _669  and  _672
REMARK  277  A    between atoms: _672  and  _673
REMARK  278  A    between atoms: _676  and  _678
REMARK  279  A    between atoms: _678  and  _679
REMARK  280  A    between atoms: _678  and  _681
REMARK  281  A    between atoms: _684  and  _686
REMARK  282  A    between atoms: _686  and  _687
REMARK  283  A    between atoms: _686  and  _689
REMARK  284  A    between atoms: _689  and  _690
REMARK                            x       y       z     vdW  Elec       q    Type
REMARK                         _______ _______ _______ _____ _____    ______ ____
ROOT
ATOM      1  O   HOH     1      56.787  15.081   0.443  0.00  0.00    +0.000 OA
ENDROOT
TORSDOF 0
