REMARK  Name = ../refined-set-2016/2vmc/2vmc_pocket.pdb
REMARK  94 active torsions:
REMARK  status: ('A' for Active; 'I' for Inactive)
REMARK    1  A    between atoms: _1  and  _3
REMARK    2  A    between atoms: _3  and  _4
REMARK    3  A    between atoms: _6  and  _8
REMARK    4  A    between atoms: _8  and  _9
REMARK    5  A    between atoms: _8  and  _11
REMARK    6  A    between atoms: _11  and  _12
REMARK    7  A    between atoms: _14  and  _16
REMARK    8  A    between atoms: _16  and  _17
REMARK    9  A    between atoms: _16  and  _19
REMARK   10  A    between atoms: _19  and  _20
REMARK   11  A    between atoms: _20  and  _21
REMARK   12  A    between atoms: _21  and  _22
REMARK   13  A    between atoms: _31  and  _33
REMARK   14  A    between atoms: _33  and  _34
REMARK   15  A    between atoms: _33  and  _36
REMARK   16  A    between atoms: _36  and  _37
REMARK   17  A    between atoms: _40  and  _42
REMARK   18  A    between atoms: _42  and  _43
REMARK   19  A    between atoms: _42  and  _45
REMARK   20  A    between atoms: _45  and  _46
REMARK   21  A    between atoms: _46  and  _47
REMARK   22  A    between atoms: _52  and  _54
REMARK   23  A    between atoms: _54  and  _55
REMARK   24  A    between atoms: _54  and  _57
REMARK   25  A    between atoms: _57  and  _58
REMARK   26  A    between atoms: _58  and  _59
REMARK   27  A    between atoms: _61  and  _63
REMARK   28  A    between atoms: _63  and  _64
REMARK   29  A    between atoms: _63  and  _66
REMARK   30  A    between atoms: _66  and  _67
REMARK   31  A    between atoms: _67  and  _68
REMARK   32  A    between atoms: _68  and  _69
REMARK   33  A    between atoms: _78  and  _80
REMARK   34  A    between atoms: _80  and  _81
REMARK   35  A    between atoms: _80  and  _83
REMARK   36  A    between atoms: _83  and  _84
REMARK   37  A    between atoms: _94  and  _96
REMARK   38  A    between atoms: _96  and  _97
REMARK   39  A    between atoms: _96  and  _99
REMARK   40  A    between atoms: _99  and  _100
REMARK   41  A    between atoms: _110  and  _112
REMARK   42  A    between atoms: _112  and  _113
REMARK   43  A    between atoms: _115  and  _117
REMARK   44  A    between atoms: _117  and  _118
REMARK   45  A    between atoms: _117  and  _120
REMARK   46  A    between atoms: _120  and  _121
REMARK   47  A    between atoms: _126  and  _128
REMARK   48  A    between atoms: _128  and  _129
REMARK   49  A    between atoms: _128  and  _131
REMARK   50  A    between atoms: _131  and  _132
REMARK   51  A    between atoms: _137  and  _139
REMARK   52  A    between atoms: _139  and  _140
REMARK   53  A    between atoms: _139  and  _142
REMARK   54  A    between atoms: _142  and  _143
REMARK   55  A    between atoms: _143  and  _144
REMARK   56  A    between atoms: _144  and  _145
REMARK   57  A    between atoms: _154  and  _156
REMARK   58  A    between atoms: _156  and  _157
REMARK   59  A    between atoms: _156  and  _159
REMARK   60  A    between atoms: _159  and  _160
REMARK   61  A    between atoms: _165  and  _167
REMARK   62  A    between atoms: _167  and  _168
REMARK   63  A    between atoms: _167  and  _170
REMARK   64  A    between atoms: _170  and  _171
REMARK   65  A    between atoms: _171  and  _172
REMARK   66  A    between atoms: _172  and  _173
REMARK   67  A    between atoms: _173  and  _174
REMARK   68  A    between atoms: _178  and  _180
REMARK   69  A    between atoms: _180  and  _181
REMARK   70  A    between atoms: _180  and  _183
REMARK   71  A    between atoms: _186  and  _188
REMARK   72  A    between atoms: _188  and  _189
REMARK   73  A    between atoms: _188  and  _191
REMARK   74  A    between atoms: _191  and  _192
REMARK   75  A    between atoms: _195  and  _197
REMARK   76  A    between atoms: _197  and  _198
REMARK   77  A    between atoms: _201  and  _203
REMARK   78  A    between atoms: _203  and  _204
REMARK   79  A    between atoms: _203  and  _206
REMARK   80  A    between atoms: _206  and  _207
REMARK   81  A    between atoms: _212  and  _214
REMARK   82  A    between atoms: _214  and  _215
REMARK   83  A    between atoms: _218  and  _220
REMARK   84  A    between atoms: _220  and  _221
REMARK   85  A    between atoms: _220  and  _223
REMARK   86  A    between atoms: _226  and  _228
REMARK   87  A    between atoms: _228  and  _229
REMARK   88  A    between atoms: _228  and  _231
REMARK   89  A    between atoms: _231  and  _232
REMARK   90  A    between atoms: _237  and  _238
REMARK   91  A    between atoms: _240  and  _242
REMARK   92  A    between atoms: _242  and  _243
REMARK   93  A    between atoms: _242  and  _245
REMARK   94  A    between atoms: _245  and  _246
REMARK                            x       y       z     vdW  Elec       q    Type
REMARK                         _______ _______ _______ _____ _____    ______ ____
ROOT
ATOM      1  C   SER A   2      18.327   1.565 117.951  0.00  0.00    +0.243 C 
ATOM      2  O   SER A   2      19.532   1.324 118.118  0.00  0.00    -0.273 OA
ATOM      3  N   ARG A   3      17.462   0.670 117.469  0.00  0.00    -0.298 N 
ATOM      4  H   ARG A   3      16.464   0.952 117.390  0.00  0.00    +0.150 HD
ENDROOT
BRANCH   1   5
ATOM      5  CA  SER A   2      17.724   2.925 118.354  0.00  0.00    +0.178 C 
BRANCH   5   8
ATOM      6  C   GLY A   1      17.454   2.470 120.726  0.00  0.00    +0.240 C 
ATOM      7  O   GLY A   1      16.737   1.479 120.481  0.00  0.00    -0.274 OA
ATOM      8  N   SER A   2      17.978   3.228 119.767  0.00  0.00    -0.295 N 
ATOM      9  H   SER A   2      18.573   4.042 120.021  0.00  0.00    +0.150 HD
BRANCH   6  10
ATOM     10  CA  GLY A   1      17.779   2.886 122.156  0.00  0.00    +0.169 C 
BRANCH  10  11
ATOM     11  N   GLY A   1      17.407   1.867 123.149  0.00  0.00    -0.236 NA
ATOM     12  H   GLY A   1      16.536   2.006 123.701  0.00  0.00    +0.142 HD
ENDBRANCH  10  11
ENDBRANCH   6  10
ENDBRANCH   5   8
BRANCH   5  13
ATOM     13  CB  SER A   2      18.248   4.059 117.477  0.00  0.00    +0.166 C 
BRANCH  13  14
ATOM     14  OG  SER A   2      18.305   3.645 116.128  0.00  0.00    -0.380 OA
ATOM     15  H   SER A   2      17.398   3.391 115.823  0.00  0.00    +0.211 HD
ENDBRANCH  13  14
ENDBRANCH   5  13
ENDBRANCH   1   5
BRANCH   3  16
ATOM     16  CA  ARG A   3      17.827  -0.681 117.045  0.00  0.00    +0.137 C 
BRANCH  16  17
ATOM     17  C   ARG A   3      17.155  -0.969 115.694  0.00  0.00    +0.227 C 
ATOM     18  O   ARG A   3      15.941  -0.733 115.512  0.00  0.00    -0.286 OA
ENDBRANCH  16  17
BRANCH  16  19
ATOM     19  CB  ARG A   3      17.427  -1.733 118.108  0.00  0.00    +0.031 C 
BRANCH  19  20
ATOM     20  CG  ARG A   3      18.161  -1.544 119.474  0.00  0.00    +0.045 C 
BRANCH  20  21
ATOM     21  CD  ARG A   3      17.394  -2.105 120.680  0.00  0.00    +0.174 C 
BRANCH  21  22
ATOM     22  NE  ARG A   3      16.318  -1.191 121.080  0.00  0.00    -0.265 N 
ATOM     23  HE  ARG A   3      16.578  -0.202 121.269  0.00  0.00    +0.259 HD
ATOM     24  CZ  ARG A   3      15.026  -1.526 121.222  0.00  0.00    +0.342 C 
ATOM     25  NH2 ARG A   3      14.142  -0.589 121.549  0.00  0.00    -0.292 N 
ATOM     26 HH21 ARG A   3      14.454   0.393 121.692  0.00  0.00    +0.255 HD
ATOM     27 HH22 ARG A   3      13.138  -0.838 121.662  0.00  0.00    +0.255 HD
ATOM     28  NH1 ARG A   3      14.612  -2.793 121.084  0.00  0.00    -0.292 N 
ATOM     29 HH11 ARG A   3      13.605  -3.027 121.199  0.00  0.00    +0.255 HD
ATOM     30 HH12 ARG A   3      15.298  -3.543 120.862  0.00  0.00    +0.255 HD
ENDBRANCH  21  22
ENDBRANCH  20  21
ENDBRANCH  19  20
ENDBRANCH  16  19
ENDBRANCH   3  16
TORSDOF 12
REMARK  Name = ../refined-set-2016/2vmc/2vmc_pocket.pdb
REMARK  94 active torsions:
REMARK  status: ('A' for Active; 'I' for Inactive)
REMARK    1  A    between atoms: _1  and  _3
REMARK    2  A    between atoms: _3  and  _4
REMARK    3  A    between atoms: _6  and  _8
REMARK    4  A    between atoms: _8  and  _9
REMARK    5  A    between atoms: _8  and  _11
REMARK    6  A    between atoms: _11  and  _12
REMARK    7  A    between atoms: _14  and  _16
REMARK    8  A    between atoms: _16  and  _17
REMARK    9  A    between atoms: _16  and  _19
REMARK   10  A    between atoms: _19  and  _20
REMARK   11  A    between atoms: _20  and  _21
REMARK   12  A    between atoms: _21  and  _22
REMARK   13  A    between atoms: _31  and  _33
REMARK   14  A    between atoms: _33  and  _34
REMARK   15  A    between atoms: _33  and  _36
REMARK   16  A    between atoms: _36  and  _37
REMARK   17  A    between atoms: _40  and  _42
REMARK   18  A    between atoms: _42  and  _43
REMARK   19  A    between atoms: _42  and  _45
REMARK   20  A    between atoms: _45  and  _46
REMARK   21  A    between atoms: _46  and  _47
REMARK   22  A    between atoms: _52  and  _54
REMARK   23  A    between atoms: _54  and  _55
REMARK   24  A    between atoms: _54  and  _57
REMARK   25  A    between atoms: _57  and  _58
REMARK   26  A    between atoms: _58  and  _59
REMARK   27  A    between atoms: _61  and  _63
REMARK   28  A    between atoms: _63  and  _64
REMARK   29  A    between atoms: _63  and  _66
REMARK   30  A    between atoms: _66  and  _67
REMARK   31  A    between atoms: _67  and  _68
REMARK   32  A    between atoms: _68  and  _69
REMARK   33  A    between atoms: _78  and  _80
REMARK   34  A    between atoms: _80  and  _81
REMARK   35  A    between atoms: _80  and  _83
REMARK   36  A    between atoms: _83  and  _84
REMARK   37  A    between atoms: _94  and  _96
REMARK   38  A    between atoms: _96  and  _97
REMARK   39  A    between atoms: _96  and  _99
REMARK   40  A    between atoms: _99  and  _100
REMARK   41  A    between atoms: _110  and  _112
REMARK   42  A    between atoms: _112  and  _113
REMARK   43  A    between atoms: _115  and  _117
REMARK   44  A    between atoms: _117  and  _118
REMARK   45  A    between atoms: _117  and  _120
REMARK   46  A    between atoms: _120  and  _121
REMARK   47  A    between atoms: _126  and  _128
REMARK   48  A    between atoms: _128  and  _129
REMARK   49  A    between atoms: _128  and  _131
REMARK   50  A    between atoms: _131  and  _132
REMARK   51  A    between atoms: _137  and  _139
REMARK   52  A    between atoms: _139  and  _140
REMARK   53  A    between atoms: _139  and  _142
REMARK   54  A    between atoms: _142  and  _143
REMARK   55  A    between atoms: _143  and  _144
REMARK   56  A    between atoms: _144  and  _145
REMARK   57  A    between atoms: _154  and  _156
REMARK   58  A    between atoms: _156  and  _157
REMARK   59  A    between atoms: _156  and  _159
REMARK   60  A    between atoms: _159  and  _160
REMARK   61  A    between atoms: _165  and  _167
REMARK   62  A    between atoms: _167  and  _168
REMARK   63  A    between atoms: _167  and  _170
REMARK   64  A    between atoms: _170  and  _171
REMARK   65  A    between atoms: _171  and  _172
REMARK   66  A    between atoms: _172  and  _173
REMARK   67  A    between atoms: _173  and  _174
REMARK   68  A    between atoms: _178  and  _180
REMARK   69  A    between atoms: _180  and  _181
REMARK   70  A    between atoms: _180  and  _183
REMARK   71  A    between atoms: _186  and  _188
REMARK   72  A    between atoms: _188  and  _189
REMARK   73  A    between atoms: _188  and  _191
REMARK   74  A    between atoms: _191  and  _192
REMARK   75  A    between atoms: _195  and  _197
REMARK   76  A    between atoms: _197  and  _198
REMARK   77  A    between atoms: _201  and  _203
REMARK   78  A    between atoms: _203  and  _204
REMARK   79  A    between atoms: _203  and  _206
REMARK   80  A    between atoms: _206  and  _207
REMARK   81  A    between atoms: _212  and  _214
REMARK   82  A    between atoms: _214  and  _215
REMARK   83  A    between atoms: _218  and  _220
REMARK   84  A    between atoms: _220  and  _221
REMARK   85  A    between atoms: _220  and  _223
REMARK   86  A    between atoms: _226  and  _228
REMARK   87  A    between atoms: _228  and  _229
REMARK   88  A    between atoms: _228  and  _231
REMARK   89  A    between atoms: _231  and  _232
REMARK   90  A    between atoms: _237  and  _238
REMARK   91  A    between atoms: _240  and  _242
REMARK   92  A    between atoms: _242  and  _243
REMARK   93  A    between atoms: _242  and  _245
REMARK   94  A    between atoms: _245  and  _246
REMARK                            x       y       z     vdW  Elec       q    Type
REMARK                         _______ _______ _______ _____ _____    ______ ____
ROOT
ATOM      1  CA  ASP A   1       7.499   1.195 126.393  0.00  0.00    +0.144 C 
ENDROOT
BRANCH   1   2
ATOM      2  N   ASP A   1       6.436   0.787 125.470  0.00  0.00    -0.239 NA
ATOM      3  H   ASP A   1       6.050   1.509 124.828  0.00  0.00    +0.142 HD
ENDBRANCH   1   2
BRANCH   1   4
ATOM      4  C   ASP A   1       6.900   2.315 127.260  0.00  0.00    +0.225 C 
ATOM      5  O   ASP A   1       6.784   3.477 126.832  0.00  0.00    -0.287 OA
ENDBRANCH   1   4
BRANCH   1   6
ATOM      6  CB  ASP A   1       8.747   1.674 125.624  0.00  0.00    +0.139 C 
BRANCH   6   7
ATOM      7  CG  ASP A   1       9.802   2.342 126.526  0.00  0.00    +0.367 C 
ATOM      8  OD2 ASP A   1       9.801   2.094 127.739  0.00  0.00    -0.246 OA
ATOM      9  OD1 ASP A   1      10.633   3.125 126.005  0.00  0.00    -0.246 OA
ENDBRANCH   6   7
ENDBRANCH   1   6
TORSDOF 4
REMARK  Name = ../refined-set-2016/2vmc/2vmc_pocket.pdb
REMARK  94 active torsions:
REMARK  status: ('A' for Active; 'I' for Inactive)
REMARK    1  A    between atoms: _1  and  _3
REMARK    2  A    between atoms: _3  and  _4
REMARK    3  A    between atoms: _6  and  _8
REMARK    4  A    between atoms: _8  and  _9
REMARK    5  A    between atoms: _8  and  _11
REMARK    6  A    between atoms: _11  and  _12
REMARK    7  A    between atoms: _14  and  _16
REMARK    8  A    between atoms: _16  and  _17
REMARK    9  A    between atoms: _16  and  _19
REMARK   10  A    between atoms: _19  and  _20
REMARK   11  A    between atoms: _20  and  _21
REMARK   12  A    between atoms: _21  and  _22
REMARK   13  A    between atoms: _31  and  _33
REMARK   14  A    between atoms: _33  and  _34
REMARK   15  A    between atoms: _33  and  _36
REMARK   16  A    between atoms: _36  and  _37
REMARK   17  A    between atoms: _40  and  _42
REMARK   18  A    between atoms: _42  and  _43
REMARK   19  A    between atoms: _42  and  _45
REMARK   20  A    between atoms: _45  and  _46
REMARK   21  A    between atoms: _46  and  _47
REMARK   22  A    between atoms: _52  and  _54
REMARK   23  A    between atoms: _54  and  _55
REMARK   24  A    between atoms: _54  and  _57
REMARK   25  A    between atoms: _57  and  _58
REMARK   26  A    between atoms: _58  and  _59
REMARK   27  A    between atoms: _61  and  _63
REMARK   28  A    between atoms: _63  and  _64
REMARK   29  A    between atoms: _63  and  _66
REMARK   30  A    between atoms: _66  and  _67
REMARK   31  A    between atoms: _67  and  _68
REMARK   32  A    between atoms: _68  and  _69
REMARK   33  A    between atoms: _78  and  _80
REMARK   34  A    between atoms: _80  and  _81
REMARK   35  A    between atoms: _80  and  _83
REMARK   36  A    between atoms: _83  and  _84
REMARK   37  A    between atoms: _94  and  _96
REMARK   38  A    between atoms: _96  and  _97
REMARK   39  A    between atoms: _96  and  _99
REMARK   40  A    between atoms: _99  and  _100
REMARK   41  A    between atoms: _110  and  _112
REMARK   42  A    between atoms: _112  and  _113
REMARK   43  A    between atoms: _115  and  _117
REMARK   44  A    between atoms: _117  and  _118
REMARK   45  A    between atoms: _117  and  _120
REMARK   46  A    between atoms: _120  and  _121
REMARK   47  A    between atoms: _126  and  _128
REMARK   48  A    between atoms: _128  and  _129
REMARK   49  A    between atoms: _128  and  _131
REMARK   50  A    between atoms: _131  and  _132
REMARK   51  A    between atoms: _137  and  _139
REMARK   52  A    between atoms: _139  and  _140
REMARK   53  A    between atoms: _139  and  _142
REMARK   54  A    between atoms: _142  and  _143
REMARK   55  A    between atoms: _143  and  _144
REMARK   56  A    between atoms: _144  and  _145
REMARK   57  A    between atoms: _154  and  _156
REMARK   58  A    between atoms: _156  and  _157
REMARK   59  A    between atoms: _156  and  _159
REMARK   60  A    between atoms: _159  and  _160
REMARK   61  A    between atoms: _165  and  _167
REMARK   62  A    between atoms: _167  and  _168
REMARK   63  A    between atoms: _167  and  _170
REMARK   64  A    between atoms: _170  and  _171
REMARK   65  A    between atoms: _171  and  _172
REMARK   66  A    between atoms: _172  and  _173
REMARK   67  A    between atoms: _173  and  _174
REMARK   68  A    between atoms: _178  and  _180
REMARK   69  A    between atoms: _180  and  _181
REMARK   70  A    between atoms: _180  and  _183
REMARK   71  A    between atoms: _186  and  _188
REMARK   72  A    between atoms: _188  and  _189
REMARK   73  A    between atoms: _188  and  _191
REMARK   74  A    between atoms: _191  and  _192
REMARK   75  A    between atoms: _195  and  _197
REMARK   76  A    between atoms: _197  and  _198
REMARK   77  A    between atoms: _201  and  _203
REMARK   78  A    between atoms: _203  and  _204
REMARK   79  A    between atoms: _203  and  _206
REMARK   80  A    between atoms: _206  and  _207
REMARK   81  A    between atoms: _212  and  _214
REMARK   82  A    between atoms: _214  and  _215
REMARK   83  A    between atoms: _218  and  _220
REMARK   84  A    between atoms: _220  and  _221
REMARK   85  A    between atoms: _220  and  _223
REMARK   86  A    between atoms: _226  and  _228
REMARK   87  A    between atoms: _228  and  _229
REMARK   88  A    between atoms: _228  and  _231
REMARK   89  A    between atoms: _231  and  _232
REMARK   90  A    between atoms: _237  and  _238
REMARK   91  A    between atoms: _240  and  _242
REMARK   92  A    between atoms: _242  and  _243
REMARK   93  A    between atoms: _242  and  _245
REMARK   94  A    between atoms: _245  and  _246
REMARK                            x       y       z     vdW  Elec       q    Type
REMARK                         _______ _______ _______ _____ _____    ______ ____
ROOT
ATOM      1  CA  ARG A   3       7.438   2.933 118.380  0.00  0.00    +0.149 C 
ENDROOT
BRANCH   1   2
ATOM      2  C   ARG A   3       7.829   1.825 117.384  0.00  0.00    +0.241 C 
ATOM      3  O   ARG A   3       8.432   0.813 117.777  0.00  0.00    -0.273 OA
ATOM      4  N   TRP A   4       7.487   2.017 116.102  0.00  0.00    -0.298 N 
ATOM      5  H   TRP A   4       6.857   2.808 115.859  0.00  0.00    +0.150 HD
BRANCH   4   6
ATOM      6  CA  TRP A   4       7.978   1.142 115.033  0.00  0.00    +0.141 C 
BRANCH   6   7
ATOM      7  C   TRP A   4       7.997   1.899 113.698  0.00  0.00    +0.227 C 
ATOM      8  O   TRP A   4       7.231   2.834 113.478  0.00  0.00    -0.286 OA
ENDBRANCH   6   7
BRANCH   6   9
ATOM      9  CB  TRP A   4       7.199  -0.208 114.908  0.00  0.00    +0.056 C 
BRANCH   9  10
ATOM     10  CG  TRP A   4       5.688  -0.101 114.612  0.00  0.00    -0.002 A 
ATOM     11  CD1 TRP A   4       4.670  -0.216 115.521  0.00  0.00    +0.068 A 
ATOM     12  NE1 TRP A   4       3.446  -0.083 114.893  0.00  0.00    -0.352 N 
ATOM     13  HE1 TRP A   4       2.519  -0.129 115.363  0.00  0.00    +0.166 HD
ATOM     14  CE2 TRP A   4       3.649   0.119 113.550  0.00  0.00    +0.056 A 
ATOM     15  CZ2 TRP A   4       2.712   0.313 112.508  0.00  0.00    +0.017 A 
ATOM     16  CH2 TRP A   4       3.205   0.490 111.230  0.00  0.00    +0.001 A 
ATOM     17  CZ3 TRP A   4       4.609   0.496 110.976  0.00  0.00    +0.000 A 
ATOM     18  CE3 TRP A   4       5.531   0.304 112.015  0.00  0.00    +0.001 A 
ATOM     19  CD2 TRP A   4       5.050   0.115 113.328  0.00  0.00    +0.013 A 
ENDBRANCH   9  10
ENDBRANCH   6   9
ENDBRANCH   4   6
ENDBRANCH   1   2
BRANCH   1  22
ATOM     20  C   MET A   2       5.392   3.149 119.753  0.00  0.00    +0.241 C 
ATOM     21  O   MET A   2       5.174   4.315 119.411  0.00  0.00    -0.273 OA
ATOM     22  N   ARG A   3       6.459   2.443 119.358  0.00  0.00    -0.297 N 
ATOM     23  H   ARG A   3       6.602   1.497 119.766  0.00  0.00    +0.150 HD
BRANCH  20  24
ATOM     24  CA  MET A   2       4.462   2.458 120.739  0.00  0.00    +0.149 C 
BRANCH  24  27
ATOM     25  C   GLN A   1       4.892   3.346 123.005  0.00  0.00    +0.238 C 
ATOM     26  O   GLN A   1       5.728   2.463 123.286  0.00  0.00    -0.274 OA
ATOM     27  N   MET A   2       4.185   3.361 121.876  0.00  0.00    -0.297 N 
ATOM     28  H   MET A   2       3.402   4.040 121.791  0.00  0.00    +0.150 HD
BRANCH  25  29
ATOM     29  CA  GLN A   1       4.611   4.491 123.986  0.00  0.00    +0.145 C 
BRANCH  29  30
ATOM     30  N   GLN A   1       4.231   3.947 125.316  0.00  0.00    -0.238 NA
ATOM     31  H   GLN A   1       4.978   3.775 126.019  0.00  0.00    +0.142 HD
ENDBRANCH  29  30
BRANCH  29  32
ATOM     32  CB  GLN A   1       5.851   5.422 124.070  0.00  0.00    +0.036 C 
BRANCH  32  33
ATOM     33  CG  GLN A   1       6.053   6.310 122.796  0.00  0.00    +0.087 C 
BRANCH  33  34
ATOM     34  CD  GLN A   1       5.040   7.468 122.742  0.00  0.00    +0.219 C 
ATOM     35  OE1 GLN A   1       4.396   7.778 123.754  0.00  0.00    -0.275 OA
ATOM     36  NE2 GLN A   1       4.916   8.118 121.578  0.00  0.00    -0.329 N 
ATOM     37 HE21 GLN A   1       4.258   8.919 121.497  0.00  0.00    +0.145 HD
ATOM     38 HE22 GLN A   1       5.478   7.822 120.755  0.00  0.00    +0.145 HD
ENDBRANCH  33  34
ENDBRANCH  32  33
ENDBRANCH  29  32
ENDBRANCH  25  29
ENDBRANCH  24  27
BRANCH  24  39
ATOM     39  CB  MET A   2       3.159   2.035 120.038  0.00  0.00    +0.041 C 
BRANCH  39  40
ATOM     40  CG  MET A   2       3.342   1.096 118.801  0.00  0.00    +0.060 C 
BRANCH  40  41
ATOM     41  SD  MET A   2       4.129  -0.469 119.275  0.00  0.00    -0.139 S 
ATOM     42  CE  MET A   2       2.700  -1.374 119.917  0.00  0.00    +0.069 C 
ENDBRANCH  40  41
ENDBRANCH  39  40
ENDBRANCH  24  39
ENDBRANCH  20  24
ENDBRANCH   1  22
BRANCH   1  43
ATOM     43  CB  ARG A   3       8.711   3.480 119.076  0.00  0.00    +0.033 C 
BRANCH  43  44
ATOM     44  CG  ARG A   3       8.487   4.545 120.171  0.00  0.00    +0.045 C 
BRANCH  44  45
ATOM     45  CD  ARG A   3       9.842   4.926 120.830  0.00  0.00    +0.174 C 
BRANCH  45  46
ATOM     46  NE  ARG A   3       9.680   5.932 121.882  0.00  0.00    -0.265 N 
ATOM     47  CZ  ARG A   3       9.594   5.639 123.181  0.00  0.00    +0.342 C 
ATOM     48  NH2 ARG A   3       9.467   6.622 124.074  0.00  0.00    -0.292 N 
ATOM     49 HH21 ARG A   3       9.400   6.398 125.087  0.00  0.00    +0.255 HD
ATOM     50 HH22 ARG A   3       9.435   7.612 123.757  0.00  0.00    +0.255 HD
ATOM     51  NH1 ARG A   3       9.677   4.376 123.586  0.00  0.00    -0.292 N 
ATOM     52 HH11 ARG A   3       9.610   4.149 124.599  0.00  0.00    +0.255 HD
ATOM     53 HH12 ARG A   3       9.809   3.614 122.890  0.00  0.00    +0.255 HD
ATOM     54  HE  ARG A   3       9.629   6.932 121.601  0.00  0.00    +0.259 HD
ENDBRANCH  45  46
ENDBRANCH  44  45
ENDBRANCH  43  44
ENDBRANCH   1  43
TORSDOF 20
REMARK  Name = ../refined-set-2016/2vmc/2vmc_pocket.pdb
REMARK  94 active torsions:
REMARK  status: ('A' for Active; 'I' for Inactive)
REMARK    1  A    between atoms: _1  and  _3
REMARK    2  A    between atoms: _3  and  _4
REMARK    3  A    between atoms: _6  and  _8
REMARK    4  A    between atoms: _8  and  _9
REMARK    5  A    between atoms: _8  and  _11
REMARK    6  A    between atoms: _11  and  _12
REMARK    7  A    between atoms: _14  and  _16
REMARK    8  A    between atoms: _16  and  _17
REMARK    9  A    between atoms: _16  and  _19
REMARK   10  A    between atoms: _19  and  _20
REMARK   11  A    between atoms: _20  and  _21
REMARK   12  A    between atoms: _21  and  _22
REMARK   13  A    between atoms: _31  and  _33
REMARK   14  A    between atoms: _33  and  _34
REMARK   15  A    between atoms: _33  and  _36
REMARK   16  A    between atoms: _36  and  _37
REMARK   17  A    between atoms: _40  and  _42
REMARK   18  A    between atoms: _42  and  _43
REMARK   19  A    between atoms: _42  and  _45
REMARK   20  A    between atoms: _45  and  _46
REMARK   21  A    between atoms: _46  and  _47
REMARK   22  A    between atoms: _52  and  _54
REMARK   23  A    between atoms: _54  and  _55
REMARK   24  A    between atoms: _54  and  _57
REMARK   25  A    between atoms: _57  and  _58
REMARK   26  A    between atoms: _58  and  _59
REMARK   27  A    between atoms: _61  and  _63
REMARK   28  A    between atoms: _63  and  _64
REMARK   29  A    between atoms: _63  and  _66
REMARK   30  A    between atoms: _66  and  _67
REMARK   31  A    between atoms: _67  and  _68
REMARK   32  A    between atoms: _68  and  _69
REMARK   33  A    between atoms: _78  and  _80
REMARK   34  A    between atoms: _80  and  _81
REMARK   35  A    between atoms: _80  and  _83
REMARK   36  A    between atoms: _83  and  _84
REMARK   37  A    between atoms: _94  and  _96
REMARK   38  A    between atoms: _96  and  _97
REMARK   39  A    between atoms: _96  and  _99
REMARK   40  A    between atoms: _99  and  _100
REMARK   41  A    between atoms: _110  and  _112
REMARK   42  A    between atoms: _112  and  _113
REMARK   43  A    between atoms: _115  and  _117
REMARK   44  A    between atoms: _117  and  _118
REMARK   45  A    between atoms: _117  and  _120
REMARK   46  A    between atoms: _120  and  _121
REMARK   47  A    between atoms: _126  and  _128
REMARK   48  A    between atoms: _128  and  _129
REMARK   49  A    between atoms: _128  and  _131
REMARK   50  A    between atoms: _131  and  _132
REMARK   51  A    between atoms: _137  and  _139
REMARK   52  A    between atoms: _139  and  _140
REMARK   53  A    between atoms: _139  and  _142
REMARK   54  A    between atoms: _142  and  _143
REMARK   55  A    between atoms: _143  and  _144
REMARK   56  A    between atoms: _144  and  _145
REMARK   57  A    between atoms: _154  and  _156
REMARK   58  A    between atoms: _156  and  _157
REMARK   59  A    between atoms: _156  and  _159
REMARK   60  A    between atoms: _159  and  _160
REMARK   61  A    between atoms: _165  and  _167
REMARK   62  A    between atoms: _167  and  _168
REMARK   63  A    between atoms: _167  and  _170
REMARK   64  A    between atoms: _170  and  _171
REMARK   65  A    between atoms: _171  and  _172
REMARK   66  A    between atoms: _172  and  _173
REMARK   67  A    between atoms: _173  and  _174
REMARK   68  A    between atoms: _178  and  _180
REMARK   69  A    between atoms: _180  and  _181
REMARK   70  A    between atoms: _180  and  _183
REMARK   71  A    between atoms: _186  and  _188
REMARK   72  A    between atoms: _188  and  _189
REMARK   73  A    between atoms: _188  and  _191
REMARK   74  A    between atoms: _191  and  _192
REMARK   75  A    between atoms: _195  and  _197
REMARK   76  A    between atoms: _197  and  _198
REMARK   77  A    between atoms: _201  and  _203
REMARK   78  A    between atoms: _203  and  _204
REMARK   79  A    between atoms: _203  and  _206
REMARK   80  A    between atoms: _206  and  _207
REMARK   81  A    between atoms: _212  and  _214
REMARK   82  A    between atoms: _214  and  _215
REMARK   83  A    between atoms: _218  and  _220
REMARK   84  A    between atoms: _220  and  _221
REMARK   85  A    between atoms: _220  and  _223
REMARK   86  A    between atoms: _226  and  _228
REMARK   87  A    between atoms: _228  and  _229
REMARK   88  A    between atoms: _228  and  _231
REMARK   89  A    between atoms: _231  and  _232
REMARK   90  A    between atoms: _237  and  _238
REMARK   91  A    between atoms: _240  and  _242
REMARK   92  A    between atoms: _242  and  _243
REMARK   93  A    between atoms: _242  and  _245
REMARK   94  A    between atoms: _245  and  _246
REMARK                            x       y       z     vdW  Elec       q    Type
REMARK                         _______ _______ _______ _____ _____    ______ ____
ROOT
ATOM      1  C   GLY A   2      13.639   2.545 123.547  0.00  0.00    +0.243 C 
ATOM      2  N   ASN A   3      12.783   2.032 124.434  0.00  0.00    -0.297 N 
ATOM      3  H   ASN A   3      11.976   2.601 124.760  0.00  0.00    +0.150 HD
ATOM      4  O   GLY A   2      14.634   1.912 123.134  0.00  0.00    -0.273 OA
ENDROOT
BRANCH   1   5
ATOM      5  CA  GLY A   2      13.351   3.942 123.051  0.00  0.00    +0.176 C 
BRANCH   5   7
ATOM      6  C   TRP A   1      13.166   3.187 120.776  0.00  0.00    +0.239 C 
ATOM      7  N   GLY A   2      13.692   4.059 121.628  0.00  0.00    -0.296 N 
ATOM      8  H   GLY A   2      14.331   4.808 121.295  0.00  0.00    +0.150 HD
ATOM      9  O   TRP A   1      12.214   2.472 121.086  0.00  0.00    -0.274 OA
BRANCH   6  10
ATOM     10  CA  TRP A   1      13.811   3.032 119.392  0.00  0.00    +0.149 C 
BRANCH  10  11
ATOM     11  N   TRP A   1      12.964   2.131 118.576  0.00  0.00    -0.238 NA
ATOM     12  H   TRP A   1      11.960   2.019 118.823  0.00  0.00    +0.142 HD
ENDBRANCH  10  11
BRANCH  10  13
ATOM     13  CB  TRP A   1      14.116   4.381 118.680  0.00  0.00    +0.054 C 
BRANCH  13  14
ATOM     14  CG  TRP A   1      12.892   5.283 118.412  0.00  0.00    -0.002 A 
ATOM     15  CD1 TRP A   1      12.573   6.428 119.079  0.00  0.00    +0.068 A 
ATOM     16  NE1 TRP A   1      11.425   6.979 118.567  0.00  0.00    -0.352 N 
ATOM     17  HE1 TRP A   1      10.968   7.848 118.910  0.00  0.00    +0.166 HD
ATOM     18  CE2 TRP A   1      10.975   6.198 117.526  0.00  0.00    +0.056 A 
ATOM     19  CZ2 TRP A   1       9.837   6.353 116.686  0.00  0.00    +0.017 A 
ATOM     20  CH2 TRP A   1       9.630   5.403 115.703  0.00  0.00    +0.001 A 
ATOM     21  CZ3 TRP A   1      10.542   4.314 115.531  0.00  0.00    +0.000 A 
ATOM     22  CE3 TRP A   1      11.665   4.167 116.376  0.00  0.00    +0.001 A 
ATOM     23  CD2 TRP A   1      11.894   5.126 117.379  0.00  0.00    +0.013 A 
ENDBRANCH  13  14
ENDBRANCH  10  13
ENDBRANCH   6  10
ENDBRANCH   5   7
ENDBRANCH   1   5
BRANCH   2  24
ATOM     24  CA  ASN A   3      12.970   0.683 124.949  0.00  0.00    +0.158 C 
BRANCH  24  25
ATOM     25  C   ASN A   3      11.912  -0.332 124.464  0.00  0.00    +0.241 C 
ATOM     26  O   ASN A   3      11.692  -1.362 125.107  0.00  0.00    -0.273 OA
ATOM     27  N   ASN A   4      11.281  -0.059 123.322  0.00  0.00    -0.298 N 
ATOM     28  H   ASN A   4      11.502   0.816 122.805  0.00  0.00    +0.150 HD
BRANCH  27  29
ATOM     29  CA  ASN A   4      10.277  -0.985 122.791  0.00  0.00    +0.146 C 
BRANCH  29  30
ATOM     30  C   ASN A   4      10.848  -2.353 122.405  0.00  0.00    +0.227 C 
ATOM     31  O   ASN A   4      11.920  -2.431 121.795  0.00  0.00    -0.286 OA
ENDBRANCH  29  30
BRANCH  29  32
ATOM     32  CB  ASN A   4       9.582  -0.385 121.564  0.00  0.00    +0.112 C 
BRANCH  32  33
ATOM     33  CG  ASN A   4       8.705   0.808 121.919  0.00  0.00    +0.222 C 
ATOM     34  OD1 ASN A   4       9.201   1.889 122.150  0.00  0.00    -0.275 OA
ATOM     35  ND2 ASN A   4       7.391   0.593 121.966  0.00  0.00    -0.329 N 
ATOM     36 HD21 ASN A   4       6.745   1.371 122.209  0.00  0.00    +0.145 HD
ATOM     37 HD22 ASN A   4       7.011  -0.353 121.760  0.00  0.00    +0.145 HD
ENDBRANCH  32  33
ENDBRANCH  29  32
ENDBRANCH  27  29
ENDBRANCH  24  25
BRANCH  24  38
ATOM     38  CB  ASN A   3      13.042   0.700 126.493  0.00  0.00    +0.114 C 
BRANCH  38  39
ATOM     39  CG  ASN A   3      14.275   1.458 127.011  0.00  0.00    +0.222 C 
ATOM     40  ND2 ASN A   3      14.110   2.157 128.123  0.00  0.00    -0.329 N 
ATOM     41 HD21 ASN A   3      13.193   2.146 128.613  0.00  0.00    +0.145 HD
ATOM     42 HD22 ASN A   3      14.898   2.717 128.507  0.00  0.00    +0.145 HD
ATOM     43  OD1 ASN A   3      15.346   1.441 126.395  0.00  0.00    -0.275 OA
ENDBRANCH  38  39
ENDBRANCH  24  38
ENDBRANCH   2  24
TORSDOF 14
REMARK  Name = ../refined-set-2016/2vmc/2vmc_pocket.pdb
REMARK  94 active torsions:
REMARK  status: ('A' for Active; 'I' for Inactive)
REMARK    1  A    between atoms: _1  and  _3
REMARK    2  A    between atoms: _3  and  _4
REMARK    3  A    between atoms: _6  and  _8
REMARK    4  A    between atoms: _8  and  _9
REMARK    5  A    between atoms: _8  and  _11
REMARK    6  A    between atoms: _11  and  _12
REMARK    7  A    between atoms: _14  and  _16
REMARK    8  A    between atoms: _16  and  _17
REMARK    9  A    between atoms: _16  and  _19
REMARK   10  A    between atoms: _19  and  _20
REMARK   11  A    between atoms: _20  and  _21
REMARK   12  A    between atoms: _21  and  _22
REMARK   13  A    between atoms: _31  and  _33
REMARK   14  A    between atoms: _33  and  _34
REMARK   15  A    between atoms: _33  and  _36
REMARK   16  A    between atoms: _36  and  _37
REMARK   17  A    between atoms: _40  and  _42
REMARK   18  A    between atoms: _42  and  _43
REMARK   19  A    between atoms: _42  and  _45
REMARK   20  A    between atoms: _45  and  _46
REMARK   21  A    between atoms: _46  and  _47
REMARK   22  A    between atoms: _52  and  _54
REMARK   23  A    between atoms: _54  and  _55
REMARK   24  A    between atoms: _54  and  _57
REMARK   25  A    between atoms: _57  and  _58
REMARK   26  A    between atoms: _58  and  _59
REMARK   27  A    between atoms: _61  and  _63
REMARK   28  A    between atoms: _63  and  _64
REMARK   29  A    between atoms: _63  and  _66
REMARK   30  A    between atoms: _66  and  _67
REMARK   31  A    between atoms: _67  and  _68
REMARK   32  A    between atoms: _68  and  _69
REMARK   33  A    between atoms: _78  and  _80
REMARK   34  A    between atoms: _80  and  _81
REMARK   35  A    between atoms: _80  and  _83
REMARK   36  A    between atoms: _83  and  _84
REMARK   37  A    between atoms: _94  and  _96
REMARK   38  A    between atoms: _96  and  _97
REMARK   39  A    between atoms: _96  and  _99
REMARK   40  A    between atoms: _99  and  _100
REMARK   41  A    between atoms: _110  and  _112
REMARK   42  A    between atoms: _112  and  _113
REMARK   43  A    between atoms: _115  and  _117
REMARK   44  A    between atoms: _117  and  _118
REMARK   45  A    between atoms: _117  and  _120
REMARK   46  A    between atoms: _120  and  _121
REMARK   47  A    between atoms: _126  and  _128
REMARK   48  A    between atoms: _128  and  _129
REMARK   49  A    between atoms: _128  and  _131
REMARK   50  A    between atoms: _131  and  _132
REMARK   51  A    between atoms: _137  and  _139
REMARK   52  A    between atoms: _139  and  _140
REMARK   53  A    between atoms: _139  and  _142
REMARK   54  A    between atoms: _142  and  _143
REMARK   55  A    between atoms: _143  and  _144
REMARK   56  A    between atoms: _144  and  _145
REMARK   57  A    between atoms: _154  and  _156
REMARK   58  A    between atoms: _156  and  _157
REMARK   59  A    between atoms: _156  and  _159
REMARK   60  A    between atoms: _159  and  _160
REMARK   61  A    between atoms: _165  and  _167
REMARK   62  A    between atoms: _167  and  _168
REMARK   63  A    between atoms: _167  and  _170
REMARK   64  A    between atoms: _170  and  _171
REMARK   65  A    between atoms: _171  and  _172
REMARK   66  A    between atoms: _172  and  _173
REMARK   67  A    between atoms: _173  and  _174
REMARK   68  A    between atoms: _178  and  _180
REMARK   69  A    between atoms: _180  and  _181
REMARK   70  A    between atoms: _180  and  _183
REMARK   71  A    between atoms: _186  and  _188
REMARK   72  A    between atoms: _188  and  _189
REMARK   73  A    between atoms: _188  and  _191
REMARK   74  A    between atoms: _191  and  _192
REMARK   75  A    between atoms: _195  and  _197
REMARK   76  A    between atoms: _197  and  _198
REMARK   77  A    between atoms: _201  and  _203
REMARK   78  A    between atoms: _203  and  _204
REMARK   79  A    between atoms: _203  and  _206
REMARK   80  A    between atoms: _206  and  _207
REMARK   81  A    between atoms: _212  and  _214
REMARK   82  A    between atoms: _214  and  _215
REMARK   83  A    between atoms: _218  and  _220
REMARK   84  A    between atoms: _220  and  _221
REMARK   85  A    between atoms: _220  and  _223
REMARK   86  A    between atoms: _226  and  _228
REMARK   87  A    between atoms: _228  and  _229
REMARK   88  A    between atoms: _228  and  _231
REMARK   89  A    between atoms: _231  and  _232
REMARK   90  A    between atoms: _237  and  _238
REMARK   91  A    between atoms: _240  and  _242
REMARK   92  A    between atoms: _242  and  _243
REMARK   93  A    between atoms: _242  and  _245
REMARK   94  A    between atoms: _245  and  _246
REMARK                            x       y       z     vdW  Elec       q    Type
REMARK                         _______ _______ _______ _____ _____    ______ ____
ROOT
ATOM      1  NE  ARG A   1       6.102  15.385 117.783  0.00  0.00    -0.265 N 
ATOM      2  HE  ARG A   1       5.251  14.823 117.577  0.00  0.00    +0.259 HD
ATOM      3  CZ  ARG A   1       7.042  15.445 116.828  0.00  0.00    +0.342 C 
ATOM      4  NH2 ARG A   1       8.151  16.160 117.021  0.00  0.00    -0.292 N 
ATOM      5 HH21 ARG A   1       8.290  16.674 117.915  0.00  0.00    +0.255 HD
ATOM      6 HH22 ARG A   1       8.877  16.204 116.278  0.00  0.00    +0.255 HD
ATOM      7  NH1 ARG A   1       6.881  14.781 115.671  0.00  0.00    -0.292 N 
ATOM      8 HH11 ARG A   1       6.023  14.216 115.511  0.00  0.00    +0.255 HD
ATOM      9 HH12 ARG A   1       7.614  14.833 114.935  0.00  0.00    +0.255 HD
ENDROOT
BRANCH   1  10
ATOM     10  CD  ARG A   1       6.169  16.049 119.106  0.00  0.00    +0.174 C 
BRANCH  10  11
ATOM     11  CG  ARG A   1       5.833  17.561 119.100  0.00  0.00    +0.045 C 
BRANCH  11  12
ATOM     12  CB  ARG A   1       4.338  17.871 119.043  0.00  0.00    +0.029 C 
BRANCH  12  13
ATOM     13  CA  ARG A   1       3.637  17.468 117.731  0.00  0.00    +0.133 C 
BRANCH  13  14
ATOM     14  N   ARG A   1       4.381  17.954 116.556  0.00  0.00    -0.239 NA
ATOM     15  H   ARG A   1       4.797  18.907 116.565  0.00  0.00    +0.142 HD
ENDBRANCH  13  14
BRANCH  13  16
ATOM     16  C   ARG A   1       2.144  17.874 117.764  0.00  0.00    +0.224 C 
ATOM     17  O   ARG A   1       1.515  17.884 118.837  0.00  0.00    -0.287 OA
ENDBRANCH  13  16
ENDBRANCH  12  13
ENDBRANCH  11  12
ENDBRANCH  10  11
ENDBRANCH   1  10
TORSDOF 6
REMARK  Name = ../refined-set-2016/2vmc/2vmc_pocket.pdb
REMARK  94 active torsions:
REMARK  status: ('A' for Active; 'I' for Inactive)
REMARK    1  A    between atoms: _1  and  _3
REMARK    2  A    between atoms: _3  and  _4
REMARK    3  A    between atoms: _6  and  _8
REMARK    4  A    between atoms: _8  and  _9
REMARK    5  A    between atoms: _8  and  _11
REMARK    6  A    between atoms: _11  and  _12
REMARK    7  A    between atoms: _14  and  _16
REMARK    8  A    between atoms: _16  and  _17
REMARK    9  A    between atoms: _16  and  _19
REMARK   10  A    between atoms: _19  and  _20
REMARK   11  A    between atoms: _20  and  _21
REMARK   12  A    between atoms: _21  and  _22
REMARK   13  A    between atoms: _31  and  _33
REMARK   14  A    between atoms: _33  and  _34
REMARK   15  A    between atoms: _33  and  _36
REMARK   16  A    between atoms: _36  and  _37
REMARK   17  A    between atoms: _40  and  _42
REMARK   18  A    between atoms: _42  and  _43
REMARK   19  A    between atoms: _42  and  _45
REMARK   20  A    between atoms: _45  and  _46
REMARK   21  A    between atoms: _46  and  _47
REMARK   22  A    between atoms: _52  and  _54
REMARK   23  A    between atoms: _54  and  _55
REMARK   24  A    between atoms: _54  and  _57
REMARK   25  A    between atoms: _57  and  _58
REMARK   26  A    between atoms: _58  and  _59
REMARK   27  A    between atoms: _61  and  _63
REMARK   28  A    between atoms: _63  and  _64
REMARK   29  A    between atoms: _63  and  _66
REMARK   30  A    between atoms: _66  and  _67
REMARK   31  A    between atoms: _67  and  _68
REMARK   32  A    between atoms: _68  and  _69
REMARK   33  A    between atoms: _78  and  _80
REMARK   34  A    between atoms: _80  and  _81
REMARK   35  A    between atoms: _80  and  _83
REMARK   36  A    between atoms: _83  and  _84
REMARK   37  A    between atoms: _94  and  _96
REMARK   38  A    between atoms: _96  and  _97
REMARK   39  A    between atoms: _96  and  _99
REMARK   40  A    between atoms: _99  and  _100
REMARK   41  A    between atoms: _110  and  _112
REMARK   42  A    between atoms: _112  and  _113
REMARK   43  A    between atoms: _115  and  _117
REMARK   44  A    between atoms: _117  and  _118
REMARK   45  A    between atoms: _117  and  _120
REMARK   46  A    between atoms: _120  and  _121
REMARK   47  A    between atoms: _126  and  _128
REMARK   48  A    between atoms: _128  and  _129
REMARK   49  A    between atoms: _128  and  _131
REMARK   50  A    between atoms: _131  and  _132
REMARK   51  A    between atoms: _137  and  _139
REMARK   52  A    between atoms: _139  and  _140
REMARK   53  A    between atoms: _139  and  _142
REMARK   54  A    between atoms: _142  and  _143
REMARK   55  A    between atoms: _143  and  _144
REMARK   56  A    between atoms: _144  and  _145
REMARK   57  A    between atoms: _154  and  _156
REMARK   58  A    between atoms: _156  and  _157
REMARK   59  A    between atoms: _156  and  _159
REMARK   60  A    between atoms: _159  and  _160
REMARK   61  A    between atoms: _165  and  _167
REMARK   62  A    between atoms: _167  and  _168
REMARK   63  A    between atoms: _167  and  _170
REMARK   64  A    between atoms: _170  and  _171
REMARK   65  A    between atoms: _171  and  _172
REMARK   66  A    between atoms: _172  and  _173
REMARK   67  A    between atoms: _173  and  _174
REMARK   68  A    between atoms: _178  and  _180
REMARK   69  A    between atoms: _180  and  _181
REMARK   70  A    between atoms: _180  and  _183
REMARK   71  A    between atoms: _186  and  _188
REMARK   72  A    between atoms: _188  and  _189
REMARK   73  A    between atoms: _188  and  _191
REMARK   74  A    between atoms: _191  and  _192
REMARK   75  A    between atoms: _195  and  _197
REMARK   76  A    between atoms: _197  and  _198
REMARK   77  A    between atoms: _201  and  _203
REMARK   78  A    between atoms: _203  and  _204
REMARK   79  A    between atoms: _203  and  _206
REMARK   80  A    between atoms: _206  and  _207
REMARK   81  A    between atoms: _212  and  _214
REMARK   82  A    between atoms: _214  and  _215
REMARK   83  A    between atoms: _218  and  _220
REMARK   84  A    between atoms: _220  and  _221
REMARK   85  A    between atoms: _220  and  _223
REMARK   86  A    between atoms: _226  and  _228
REMARK   87  A    between atoms: _228  and  _229
REMARK   88  A    between atoms: _228  and  _231
REMARK   89  A    between atoms: _231  and  _232
REMARK   90  A    between atoms: _237  and  _238
REMARK   91  A    between atoms: _240  and  _242
REMARK   92  A    between atoms: _242  and  _243
REMARK   93  A    between atoms: _242  and  _245
REMARK   94  A    between atoms: _245  and  _246
REMARK                            x       y       z     vdW  Elec       q    Type
REMARK                         _______ _______ _______ _____ _____    ______ ____
ROOT
ATOM      1  CB  ASN A   1       2.201  15.092 120.605  0.00  0.00    +0.110 C 
ENDROOT
BRANCH   1   2
ATOM      2  CG  ASN A   1       3.019  14.153 121.477  0.00  0.00    +0.221 C 
ATOM      3  ND2 ASN A   1       3.960  14.723 122.243  0.00  0.00    -0.329 N 
ATOM      4 HD21 ASN A   1       4.570  14.132 122.844  0.00  0.00    +0.145 HD
ATOM      5 HD22 ASN A   1       4.080  15.756 122.237  0.00  0.00    +0.145 HD
ATOM      6  OD1 ASN A   1       2.833  12.924 121.447  0.00  0.00    -0.275 OA
ENDBRANCH   1   2
BRANCH   1   7
ATOM      7  CA  ASN A   1       0.695  14.836 120.695  0.00  0.00    +0.142 C 
BRANCH   7   8
ATOM      8  N   ASN A   1       0.017  15.425 119.529  0.00  0.00    -0.239 NA
ATOM      9  H   ASN A   1       0.391  16.306 119.123  0.00  0.00    +0.142 HD
ENDBRANCH   7   8
BRANCH   7  10
ATOM     10  C   ASN A   1       0.175  15.248 122.070  0.00  0.00    +0.225 C 
ATOM     11  O   ASN A   1       0.816  14.967 123.106  0.00  0.00    -0.287 OA
ENDBRANCH   7  10
ENDBRANCH   1   7
TORSDOF 4
REMARK  Name = ../refined-set-2016/2vmc/2vmc_pocket.pdb
REMARK  94 active torsions:
REMARK  status: ('A' for Active; 'I' for Inactive)
REMARK    1  A    between atoms: _1  and  _3
REMARK    2  A    between atoms: _3  and  _4
REMARK    3  A    between atoms: _6  and  _8
REMARK    4  A    between atoms: _8  and  _9
REMARK    5  A    between atoms: _8  and  _11
REMARK    6  A    between atoms: _11  and  _12
REMARK    7  A    between atoms: _14  and  _16
REMARK    8  A    between atoms: _16  and  _17
REMARK    9  A    between atoms: _16  and  _19
REMARK   10  A    between atoms: _19  and  _20
REMARK   11  A    between atoms: _20  and  _21
REMARK   12  A    between atoms: _21  and  _22
REMARK   13  A    between atoms: _31  and  _33
REMARK   14  A    between atoms: _33  and  _34
REMARK   15  A    between atoms: _33  and  _36
REMARK   16  A    between atoms: _36  and  _37
REMARK   17  A    between atoms: _40  and  _42
REMARK   18  A    between atoms: _42  and  _43
REMARK   19  A    between atoms: _42  and  _45
REMARK   20  A    between atoms: _45  and  _46
REMARK   21  A    between atoms: _46  and  _47
REMARK   22  A    between atoms: _52  and  _54
REMARK   23  A    between atoms: _54  and  _55
REMARK   24  A    between atoms: _54  and  _57
REMARK   25  A    between atoms: _57  and  _58
REMARK   26  A    between atoms: _58  and  _59
REMARK   27  A    between atoms: _61  and  _63
REMARK   28  A    between atoms: _63  and  _64
REMARK   29  A    between atoms: _63  and  _66
REMARK   30  A    between atoms: _66  and  _67
REMARK   31  A    between atoms: _67  and  _68
REMARK   32  A    between atoms: _68  and  _69
REMARK   33  A    between atoms: _78  and  _80
REMARK   34  A    between atoms: _80  and  _81
REMARK   35  A    between atoms: _80  and  _83
REMARK   36  A    between atoms: _83  and  _84
REMARK   37  A    between atoms: _94  and  _96
REMARK   38  A    between atoms: _96  and  _97
REMARK   39  A    between atoms: _96  and  _99
REMARK   40  A    between atoms: _99  and  _100
REMARK   41  A    between atoms: _110  and  _112
REMARK   42  A    between atoms: _112  and  _113
REMARK   43  A    between atoms: _115  and  _117
REMARK   44  A    between atoms: _117  and  _118
REMARK   45  A    between atoms: _117  and  _120
REMARK   46  A    between atoms: _120  and  _121
REMARK   47  A    between atoms: _126  and  _128
REMARK   48  A    between atoms: _128  and  _129
REMARK   49  A    between atoms: _128  and  _131
REMARK   50  A    between atoms: _131  and  _132
REMARK   51  A    between atoms: _137  and  _139
REMARK   52  A    between atoms: _139  and  _140
REMARK   53  A    between atoms: _139  and  _142
REMARK   54  A    between atoms: _142  and  _143
REMARK   55  A    between atoms: _143  and  _144
REMARK   56  A    between atoms: _144  and  _145
REMARK   57  A    between atoms: _154  and  _156
REMARK   58  A    between atoms: _156  and  _157
REMARK   59  A    between atoms: _156  and  _159
REMARK   60  A    between atoms: _159  and  _160
REMARK   61  A    between atoms: _165  and  _167
REMARK   62  A    between atoms: _167  and  _168
REMARK   63  A    between atoms: _167  and  _170
REMARK   64  A    between atoms: _170  and  _171
REMARK   65  A    between atoms: _171  and  _172
REMARK   66  A    between atoms: _172  and  _173
REMARK   67  A    between atoms: _173  and  _174
REMARK   68  A    between atoms: _178  and  _180
REMARK   69  A    between atoms: _180  and  _181
REMARK   70  A    between atoms: _180  and  _183
REMARK   71  A    between atoms: _186  and  _188
REMARK   72  A    between atoms: _188  and  _189
REMARK   73  A    between atoms: _188  and  _191
REMARK   74  A    between atoms: _191  and  _192
REMARK   75  A    between atoms: _195  and  _197
REMARK   76  A    between atoms: _197  and  _198
REMARK   77  A    between atoms: _201  and  _203
REMARK   78  A    between atoms: _203  and  _204
REMARK   79  A    between atoms: _203  and  _206
REMARK   80  A    between atoms: _206  and  _207
REMARK   81  A    between atoms: _212  and  _214
REMARK   82  A    between atoms: _214  and  _215
REMARK   83  A    between atoms: _218  and  _220
REMARK   84  A    between atoms: _220  and  _221
REMARK   85  A    between atoms: _220  and  _223
REMARK   86  A    between atoms: _226  and  _228
REMARK   87  A    between atoms: _228  and  _229
REMARK   88  A    between atoms: _228  and  _231
REMARK   89  A    between atoms: _231  and  _232
REMARK   90  A    between atoms: _237  and  _238
REMARK   91  A    between atoms: _240  and  _242
REMARK   92  A    between atoms: _242  and  _243
REMARK   93  A    between atoms: _242  and  _245
REMARK   94  A    between atoms: _245  and  _246
REMARK                            x       y       z     vdW  Elec       q    Type
REMARK                         _______ _______ _______ _____ _____    ______ ____
ROOT
ATOM      1  CA  ASP A   3       5.106   6.812 117.318  0.00  0.00    +0.160 C 
ENDROOT
BRANCH   1   3
ATOM      2  C   VAL A   2       4.711   5.134 115.573  0.00  0.00    +0.241 C 
ATOM      3  N   ASP A   3       4.451   6.329 116.106  0.00  0.00    -0.297 N 
ATOM      4  H   ASP A   3       3.753   6.942 115.639  0.00  0.00    +0.150 HD
ATOM      5  O   VAL A   2       5.618   4.393 115.968  0.00  0.00    -0.273 OA
BRANCH   2   6
ATOM      6  CA  VAL A   2       3.804   4.713 114.413  0.00  0.00    +0.148 C 
BRANCH   6   8
ATOM      7  C   LYS A   1       4.479   4.827 112.054  0.00  0.00    +0.238 C 
ATOM      8  N   VAL A   2       4.622   4.298 113.278  0.00  0.00    -0.297 N 
ATOM      9  H   VAL A   2       5.344   3.564 113.424  0.00  0.00    +0.150 HD
ATOM     10  O   LYS A   1       3.561   5.587 111.723  0.00  0.00    -0.274 OA
BRANCH   7  11
ATOM     11  CA  LYS A   1       5.556   4.477 111.063  0.00  0.00    +0.145 C 
BRANCH  11  12
ATOM     12  N   LYS A   1       4.955   4.042 109.782  0.00  0.00    -0.238 NA
ATOM     13  H   LYS A   1       3.999   4.362 109.526  0.00  0.00    +0.142 HD
ENDBRANCH  11  12
BRANCH  11  14
ATOM     14  CB  LYS A   1       6.498   5.677 110.888  0.00  0.00    +0.026 C 
BRANCH  14  15
ATOM     15  CG  LYS A   1       7.163   6.173 112.206  0.00  0.00    -0.000 C 
BRANCH  15  16
ATOM     16  CD  LYS A   1       7.846   7.557 111.978  0.00  0.00    -0.024 C 
BRANCH  16  17
ATOM     17  CE  LYS A   1       8.310   8.174 113.261  0.00  0.00    -0.086 C 
BRANCH  17  18
ATOM     18  NZ  LYS A   1       8.995   9.491 113.037  0.00  0.00    +0.380 N 
ATOM     19  HZ1 LYS A   1       9.299   9.882 113.951  0.00  0.00    -0.089 HD
ATOM     20  HZ2 LYS A   1       8.334  10.151 112.579  0.00  0.00    -0.089 HD
ATOM     21  HZ3 LYS A   1       9.824   9.349 112.426  0.00  0.00    -0.089 HD
ENDBRANCH  17  18
ENDBRANCH  16  17
ENDBRANCH  15  16
ENDBRANCH  14  15
ENDBRANCH  11  14
ENDBRANCH   7  11
ENDBRANCH   6   8
BRANCH   6  22
ATOM     22  CB  VAL A   2       2.869   3.571 114.879  0.00  0.00    +0.027 C 
ATOM     23  CG2 VAL A   2       2.260   3.874 116.285  0.00  0.00    +0.002 C 
ATOM     24  CG1 VAL A   2       1.803   3.272 113.825  0.00  0.00    +0.002 C 
ENDBRANCH   6  22
ENDBRANCH   2   6
ENDBRANCH   1   3
BRANCH   1  25
ATOM     25  C   ASP A   3       3.944   7.439 118.113  0.00  0.00    +0.241 C 
ATOM     26  N   ALA A   4       3.336   6.652 119.002  0.00  0.00    -0.297 N 
ATOM     27  H   ALA A   4       3.740   5.718 119.215  0.00  0.00    +0.150 HD
ATOM     28  O   ASP A   3       3.544   8.578 117.847  0.00  0.00    -0.273 OA
BRANCH  26  29
ATOM     29  CA  ALA A   4       2.100   7.079 119.691  0.00  0.00    +0.149 C 
ATOM     30  CB  ALA A   4       0.848   6.773 118.822  0.00  0.00    +0.031 C 
BRANCH  29  31
ATOM     31  C   ALA A   4       1.957   6.459 121.072  0.00  0.00    +0.241 C 
ATOM     32  N   HIS A   5       1.299   7.193 121.960  0.00  0.00    -0.298 N 
ATOM     33  H   HIS A   5       0.956   8.137 121.689  0.00  0.00    +0.150 HD
ATOM     34  O   ALA A   4       2.438   5.333 121.333  0.00  0.00    -0.273 OA
BRANCH  32  35
ATOM     35  CA  HIS A   5       1.046   6.697 123.319  0.00  0.00    +0.143 C 
BRANCH  35  36
ATOM     36  C   HIS A   5      -0.380   6.118 123.390  0.00  0.00    +0.227 C 
ATOM     37  O   HIS A   5      -1.318   6.702 122.832  0.00  0.00    -0.286 OA
ENDBRANCH  35  36
BRANCH  35  38
ATOM     38  CB  HIS A   5       1.192   7.831 124.328  0.00  0.00    +0.075 C 
BRANCH  38  39
ATOM     39  CG  HIS A   5       1.621   7.375 125.690  0.00  0.00    +0.082 A 
ATOM     40  CD2 HIS A   5       0.905   6.981 126.770  0.00  0.00    +0.115 A 
ATOM     41  NE2 HIS A   5       1.804   6.685 127.773  0.00  0.00    -0.221 NA
ATOM     42  CE1 HIS A   5       3.030   6.874 127.314  0.00  0.00    +0.199 A 
ATOM     43  ND1 HIS A   5       2.949   7.282 126.056  0.00  0.00    -0.227 NA
ENDBRANCH  38  39
ENDBRANCH  35  38
ENDBRANCH  32  35
ENDBRANCH  29  31
ENDBRANCH  26  29
ENDBRANCH   1  25
BRANCH   1  44
ATOM     44  CB  ASP A   3       6.191   7.834 116.960  0.00  0.00    +0.143 C 
BRANCH  44  45
ATOM     45  CG  ASP A   3       7.056   8.255 118.162  0.00  0.00    +0.367 C 
ATOM     46  OD2 ASP A   3       6.770   7.859 119.314  0.00  0.00    -0.246 OA
ATOM     47  OD1 ASP A   3       8.039   8.999 117.934  0.00  0.00    -0.246 OA
ENDBRANCH  44  45
ENDBRANCH   1  44
TORSDOF 20
REMARK  Name = ../refined-set-2016/2vmc/2vmc_pocket.pdb
REMARK  94 active torsions:
REMARK  status: ('A' for Active; 'I' for Inactive)
REMARK    1  A    between atoms: _1  and  _3
REMARK    2  A    between atoms: _3  and  _4
REMARK    3  A    between atoms: _6  and  _8
REMARK    4  A    between atoms: _8  and  _9
REMARK    5  A    between atoms: _8  and  _11
REMARK    6  A    between atoms: _11  and  _12
REMARK    7  A    between atoms: _14  and  _16
REMARK    8  A    between atoms: _16  and  _17
REMARK    9  A    between atoms: _16  and  _19
REMARK   10  A    between atoms: _19  and  _20
REMARK   11  A    between atoms: _20  and  _21
REMARK   12  A    between atoms: _21  and  _22
REMARK   13  A    between atoms: _31  and  _33
REMARK   14  A    between atoms: _33  and  _34
REMARK   15  A    between atoms: _33  and  _36
REMARK   16  A    between atoms: _36  and  _37
REMARK   17  A    between atoms: _40  and  _42
REMARK   18  A    between atoms: _42  and  _43
REMARK   19  A    between atoms: _42  and  _45
REMARK   20  A    between atoms: _45  and  _46
REMARK   21  A    between atoms: _46  and  _47
REMARK   22  A    between atoms: _52  and  _54
REMARK   23  A    between atoms: _54  and  _55
REMARK   24  A    between atoms: _54  and  _57
REMARK   25  A    between atoms: _57  and  _58
REMARK   26  A    between atoms: _58  and  _59
REMARK   27  A    between atoms: _61  and  _63
REMARK   28  A    between atoms: _63  and  _64
REMARK   29  A    between atoms: _63  and  _66
REMARK   30  A    between atoms: _66  and  _67
REMARK   31  A    between atoms: _67  and  _68
REMARK   32  A    between atoms: _68  and  _69
REMARK   33  A    between atoms: _78  and  _80
REMARK   34  A    between atoms: _80  and  _81
REMARK   35  A    between atoms: _80  and  _83
REMARK   36  A    between atoms: _83  and  _84
REMARK   37  A    between atoms: _94  and  _96
REMARK   38  A    between atoms: _96  and  _97
REMARK   39  A    between atoms: _96  and  _99
REMARK   40  A    between atoms: _99  and  _100
REMARK   41  A    between atoms: _110  and  _112
REMARK   42  A    between atoms: _112  and  _113
REMARK   43  A    between atoms: _115  and  _117
REMARK   44  A    between atoms: _117  and  _118
REMARK   45  A    between atoms: _117  and  _120
REMARK   46  A    between atoms: _120  and  _121
REMARK   47  A    between atoms: _126  and  _128
REMARK   48  A    between atoms: _128  and  _129
REMARK   49  A    between atoms: _128  and  _131
REMARK   50  A    between atoms: _131  and  _132
REMARK   51  A    between atoms: _137  and  _139
REMARK   52  A    between atoms: _139  and  _140
REMARK   53  A    between atoms: _139  and  _142
REMARK   54  A    between atoms: _142  and  _143
REMARK   55  A    between atoms: _143  and  _144
REMARK   56  A    between atoms: _144  and  _145
REMARK   57  A    between atoms: _154  and  _156
REMARK   58  A    between atoms: _156  and  _157
REMARK   59  A    between atoms: _156  and  _159
REMARK   60  A    between atoms: _159  and  _160
REMARK   61  A    between atoms: _165  and  _167
REMARK   62  A    between atoms: _167  and  _168
REMARK   63  A    between atoms: _167  and  _170
REMARK   64  A    between atoms: _170  and  _171
REMARK   65  A    between atoms: _171  and  _172
REMARK   66  A    between atoms: _172  and  _173
REMARK   67  A    between atoms: _173  and  _174
REMARK   68  A    between atoms: _178  and  _180
REMARK   69  A    between atoms: _180  and  _181
REMARK   70  A    between atoms: _180  and  _183
REMARK   71  A    between atoms: _186  and  _188
REMARK   72  A    between atoms: _188  and  _189
REMARK   73  A    between atoms: _188  and  _191
REMARK   74  A    between atoms: _191  and  _192
REMARK   75  A    between atoms: _195  and  _197
REMARK   76  A    between atoms: _197  and  _198
REMARK   77  A    between atoms: _201  and  _203
REMARK   78  A    between atoms: _203  and  _204
REMARK   79  A    between atoms: _203  and  _206
REMARK   80  A    between atoms: _206  and  _207
REMARK   81  A    between atoms: _212  and  _214
REMARK   82  A    between atoms: _214  and  _215
REMARK   83  A    between atoms: _218  and  _220
REMARK   84  A    between atoms: _220  and  _221
REMARK   85  A    between atoms: _220  and  _223
REMARK   86  A    between atoms: _226  and  _228
REMARK   87  A    between atoms: _228  and  _229
REMARK   88  A    between atoms: _228  and  _231
REMARK   89  A    between atoms: _231  and  _232
REMARK   90  A    between atoms: _237  and  _238
REMARK   91  A    between atoms: _240  and  _242
REMARK   92  A    between atoms: _242  and  _243
REMARK   93  A    between atoms: _242  and  _245
REMARK   94  A    between atoms: _245  and  _246
REMARK                            x       y       z     vdW  Elec       q    Type
REMARK                         _______ _______ _______ _____ _____    ______ ____
ROOT
ATOM      1  CA  TYR A   3       3.866  11.853 118.400  0.00  0.00    +0.153 C 
ENDROOT
BRANCH   1   3
ATOM      2  C   VAL A   2       1.399  11.686 118.483  0.00  0.00    +0.241 C 
ATOM      3  N   TYR A   3       2.605  11.124 118.593  0.00  0.00    -0.297 N 
ATOM      4  H   TYR A   3       2.655  10.112 118.829  0.00  0.00    +0.150 HD
ATOM      5  O   VAL A   2       1.228  12.868 118.190  0.00  0.00    -0.273 OA
BRANCH   2   6
ATOM      6  CA  VAL A   2       0.205  10.771 118.781  0.00  0.00    +0.148 C 
BRANCH   6   9
ATOM      7  C   ALA A   1      -0.273  10.760 121.189  0.00  0.00    +0.238 C 
ATOM      8  O   ALA A   1       0.518   9.798 121.415  0.00  0.00    -0.274 OA
ATOM      9  N   VAL A   2      -0.496  11.258 119.977  0.00  0.00    -0.297 N 
ATOM     10  H   VAL A   2      -1.194  12.022 119.871  0.00  0.00    +0.150 HD
BRANCH   7  11
ATOM     11  CA  ALA A   1      -1.065  11.408 122.329  0.00  0.00    +0.145 C 
ATOM     12  CB  ALA A   1      -0.125  11.744 123.514  0.00  0.00    +0.028 C 
BRANCH  11  13
ATOM     13  N   ALA A   1      -2.108  10.461 122.757  0.00  0.00    -0.238 NA
ATOM     14  H   ALA A   1      -1.831   9.665 123.366  0.00  0.00    +0.142 HD
ENDBRANCH  11  13
ENDBRANCH   7  11
ENDBRANCH   6   9
BRANCH   6  15
ATOM     15  CB  VAL A   2      -0.761  10.664 117.552  0.00  0.00    +0.027 C 
ATOM     16  CG2 VAL A   2      -1.920   9.702 117.845  0.00  0.00    +0.002 C 
ATOM     17  CG1 VAL A   2       0.013  10.242 116.301  0.00  0.00    +0.002 C 
ENDBRANCH   6  15
ENDBRANCH   2   6
ENDBRANCH   1   3
BRANCH   1  18
ATOM     18  C   TYR A   3       4.185  12.049 116.901  0.00  0.00    +0.241 C 
ATOM     19  O   TYR A   3       4.450  13.184 116.447  0.00  0.00    -0.273 OA
ATOM     20  N   ASP A   4       4.128  10.959 116.132  0.00  0.00    -0.298 N 
ATOM     21  H   ASP A   4       3.990  10.030 116.579  0.00  0.00    +0.150 HD
BRANCH  20  22
ATOM     22  CA  ASP A   4       4.257  11.038 114.656  0.00  0.00    +0.148 C 
BRANCH  22  23
ATOM     23  C   ASP A   4       3.578   9.831 113.990  0.00  0.00    +0.227 C 
ATOM     24  O   ASP A   4       3.376   8.786 114.634  0.00  0.00    -0.286 OA
ENDBRANCH  22  23
BRANCH  22  25
ATOM     25  CB  ASP A   4       5.741  11.134 114.252  0.00  0.00    +0.142 C 
BRANCH  25  26
ATOM     26  CG  ASP A   4       5.960  11.701 112.838  0.00  0.00    +0.367 C 
ATOM     27  OD2 ASP A   4       7.096  11.556 112.317  0.00  0.00    -0.246 OA
ATOM     28  OD1 ASP A   4       5.034  12.294 112.250  0.00  0.00    -0.246 OA
ENDBRANCH  25  26
ENDBRANCH  22  25
ENDBRANCH  20  22
ENDBRANCH   1  18
BRANCH   1  29
ATOM     29  CB  TYR A   3       5.010  11.120 119.136  0.00  0.00    +0.055 C 
BRANCH  29  30
ATOM     30  CG  TYR A   3       6.269  11.931 119.298  0.00  0.00    -0.020 A 
ATOM     31  CD2 TYR A   3       6.528  12.622 120.496  0.00  0.00    -0.001 A 
ATOM     32  CE2 TYR A   3       7.694  13.347 120.656  0.00  0.00    +0.036 A 
ATOM     33  CZ  TYR A   3       8.619  13.394 119.620  0.00  0.00    +0.134 A 
ATOM     34  CE1 TYR A   3       8.394  12.723 118.422  0.00  0.00    +0.036 A 
ATOM     35  CD1 TYR A   3       7.212  11.997 118.276  0.00  0.00    -0.001 A 
BRANCH  33  36
ATOM     36  OH  TYR A   3       9.767  14.126 119.780  0.00  0.00    -0.506 OA
ATOM     37  HH  TYR A   3      10.552  13.531 119.682  0.00  0.00    +0.292 HD
ENDBRANCH  33  36
ENDBRANCH  29  30
ENDBRANCH   1  29
TORSDOF 14
REMARK  Name = ../refined-set-2016/2vmc/2vmc_pocket.pdb
REMARK  94 active torsions:
REMARK  status: ('A' for Active; 'I' for Inactive)
REMARK    1  A    between atoms: _1  and  _3
REMARK    2  A    between atoms: _3  and  _4
REMARK    3  A    between atoms: _6  and  _8
REMARK    4  A    between atoms: _8  and  _9
REMARK    5  A    between atoms: _8  and  _11
REMARK    6  A    between atoms: _11  and  _12
REMARK    7  A    between atoms: _14  and  _16
REMARK    8  A    between atoms: _16  and  _17
REMARK    9  A    between atoms: _16  and  _19
REMARK   10  A    between atoms: _19  and  _20
REMARK   11  A    between atoms: _20  and  _21
REMARK   12  A    between atoms: _21  and  _22
REMARK   13  A    between atoms: _31  and  _33
REMARK   14  A    between atoms: _33  and  _34
REMARK   15  A    between atoms: _33  and  _36
REMARK   16  A    between atoms: _36  and  _37
REMARK   17  A    between atoms: _40  and  _42
REMARK   18  A    between atoms: _42  and  _43
REMARK   19  A    between atoms: _42  and  _45
REMARK   20  A    between atoms: _45  and  _46
REMARK   21  A    between atoms: _46  and  _47
REMARK   22  A    between atoms: _52  and  _54
REMARK   23  A    between atoms: _54  and  _55
REMARK   24  A    between atoms: _54  and  _57
REMARK   25  A    between atoms: _57  and  _58
REMARK   26  A    between atoms: _58  and  _59
REMARK   27  A    between atoms: _61  and  _63
REMARK   28  A    between atoms: _63  and  _64
REMARK   29  A    between atoms: _63  and  _66
REMARK   30  A    between atoms: _66  and  _67
REMARK   31  A    between atoms: _67  and  _68
REMARK   32  A    between atoms: _68  and  _69
REMARK   33  A    between atoms: _78  and  _80
REMARK   34  A    between atoms: _80  and  _81
REMARK   35  A    between atoms: _80  and  _83
REMARK   36  A    between atoms: _83  and  _84
REMARK   37  A    between atoms: _94  and  _96
REMARK   38  A    between atoms: _96  and  _97
REMARK   39  A    between atoms: _96  and  _99
REMARK   40  A    between atoms: _99  and  _100
REMARK   41  A    between atoms: _110  and  _112
REMARK   42  A    between atoms: _112  and  _113
REMARK   43  A    between atoms: _115  and  _117
REMARK   44  A    between atoms: _117  and  _118
REMARK   45  A    between atoms: _117  and  _120
REMARK   46  A    between atoms: _120  and  _121
REMARK   47  A    between atoms: _126  and  _128
REMARK   48  A    between atoms: _128  and  _129
REMARK   49  A    between atoms: _128  and  _131
REMARK   50  A    between atoms: _131  and  _132
REMARK   51  A    between atoms: _137  and  _139
REMARK   52  A    between atoms: _139  and  _140
REMARK   53  A    between atoms: _139  and  _142
REMARK   54  A    between atoms: _142  and  _143
REMARK   55  A    between atoms: _143  and  _144
REMARK   56  A    between atoms: _144  and  _145
REMARK   57  A    between atoms: _154  and  _156
REMARK   58  A    between atoms: _156  and  _157
REMARK   59  A    between atoms: _156  and  _159
REMARK   60  A    between atoms: _159  and  _160
REMARK   61  A    between atoms: _165  and  _167
REMARK   62  A    between atoms: _167  and  _168
REMARK   63  A    between atoms: _167  and  _170
REMARK   64  A    between atoms: _170  and  _171
REMARK   65  A    between atoms: _171  and  _172
REMARK   66  A    between atoms: _172  and  _173
REMARK   67  A    between atoms: _173  and  _174
REMARK   68  A    between atoms: _178  and  _180
REMARK   69  A    between atoms: _180  and  _181
REMARK   70  A    between atoms: _180  and  _183
REMARK   71  A    between atoms: _186  and  _188
REMARK   72  A    between atoms: _188  and  _189
REMARK   73  A    between atoms: _188  and  _191
REMARK   74  A    between atoms: _191  and  _192
REMARK   75  A    between atoms: _195  and  _197
REMARK   76  A    between atoms: _197  and  _198
REMARK   77  A    between atoms: _201  and  _203
REMARK   78  A    between atoms: _203  and  _204
REMARK   79  A    between atoms: _203  and  _206
REMARK   80  A    between atoms: _206  and  _207
REMARK   81  A    between atoms: _212  and  _214
REMARK   82  A    between atoms: _214  and  _215
REMARK   83  A    between atoms: _218  and  _220
REMARK   84  A    between atoms: _220  and  _221
REMARK   85  A    between atoms: _220  and  _223
REMARK   86  A    between atoms: _226  and  _228
REMARK   87  A    between atoms: _228  and  _229
REMARK   88  A    between atoms: _228  and  _231
REMARK   89  A    between atoms: _231  and  _232
REMARK   90  A    between atoms: _237  and  _238
REMARK   91  A    between atoms: _240  and  _242
REMARK   92  A    between atoms: _242  and  _243
REMARK   93  A    between atoms: _242  and  _245
REMARK   94  A    between atoms: _245  and  _246
REMARK                            x       y       z     vdW  Elec       q    Type
REMARK                         _______ _______ _______ _____ _____    ______ ____
ROOT
ATOM      1  O   HOH     1      14.651   6.176 113.812  0.00  0.00    +0.000 OA
ENDROOT
TORSDOF 0
REMARK  Name = ../refined-set-2016/2vmc/2vmc_pocket.pdb
REMARK  94 active torsions:
REMARK  status: ('A' for Active; 'I' for Inactive)
REMARK    1  A    between atoms: _1  and  _3
REMARK    2  A    between atoms: _3  and  _4
REMARK    3  A    between atoms: _6  and  _8
REMARK    4  A    between atoms: _8  and  _9
REMARK    5  A    between atoms: _8  and  _11
REMARK    6  A    between atoms: _11  and  _12
REMARK    7  A    between atoms: _14  and  _16
REMARK    8  A    between atoms: _16  and  _17
REMARK    9  A    between atoms: _16  and  _19
REMARK   10  A    between atoms: _19  and  _20
REMARK   11  A    between atoms: _20  and  _21
REMARK   12  A    between atoms: _21  and  _22
REMARK   13  A    between atoms: _31  and  _33
REMARK   14  A    between atoms: _33  and  _34
REMARK   15  A    between atoms: _33  and  _36
REMARK   16  A    between atoms: _36  and  _37
REMARK   17  A    between atoms: _40  and  _42
REMARK   18  A    between atoms: _42  and  _43
REMARK   19  A    between atoms: _42  and  _45
REMARK   20  A    between atoms: _45  and  _46
REMARK   21  A    between atoms: _46  and  _47
REMARK   22  A    between atoms: _52  and  _54
REMARK   23  A    between atoms: _54  and  _55
REMARK   24  A    between atoms: _54  and  _57
REMARK   25  A    between atoms: _57  and  _58
REMARK   26  A    between atoms: _58  and  _59
REMARK   27  A    between atoms: _61  and  _63
REMARK   28  A    between atoms: _63  and  _64
REMARK   29  A    between atoms: _63  and  _66
REMARK   30  A    between atoms: _66  and  _67
REMARK   31  A    between atoms: _67  and  _68
REMARK   32  A    between atoms: _68  and  _69
REMARK   33  A    between atoms: _78  and  _80
REMARK   34  A    between atoms: _80  and  _81
REMARK   35  A    between atoms: _80  and  _83
REMARK   36  A    between atoms: _83  and  _84
REMARK   37  A    between atoms: _94  and  _96
REMARK   38  A    between atoms: _96  and  _97
REMARK   39  A    between atoms: _96  and  _99
REMARK   40  A    between atoms: _99  and  _100
REMARK   41  A    between atoms: _110  and  _112
REMARK   42  A    between atoms: _112  and  _113
REMARK   43  A    between atoms: _115  and  _117
REMARK   44  A    between atoms: _117  and  _118
REMARK   45  A    between atoms: _117  and  _120
REMARK   46  A    between atoms: _120  and  _121
REMARK   47  A    between atoms: _126  and  _128
REMARK   48  A    between atoms: _128  and  _129
REMARK   49  A    between atoms: _128  and  _131
REMARK   50  A    between atoms: _131  and  _132
REMARK   51  A    between atoms: _137  and  _139
REMARK   52  A    between atoms: _139  and  _140
REMARK   53  A    between atoms: _139  and  _142
REMARK   54  A    between atoms: _142  and  _143
REMARK   55  A    between atoms: _143  and  _144
REMARK   56  A    between atoms: _144  and  _145
REMARK   57  A    between atoms: _154  and  _156
REMARK   58  A    between atoms: _156  and  _157
REMARK   59  A    between atoms: _156  and  _159
REMARK   60  A    between atoms: _159  and  _160
REMARK   61  A    between atoms: _165  and  _167
REMARK   62  A    between atoms: _167  and  _168
REMARK   63  A    between atoms: _167  and  _170
REMARK   64  A    between atoms: _170  and  _171
REMARK   65  A    between atoms: _171  and  _172
REMARK   66  A    between atoms: _172  and  _173
REMARK   67  A    between atoms: _173  and  _174
REMARK   68  A    between atoms: _178  and  _180
REMARK   69  A    between atoms: _180  and  _181
REMARK   70  A    between atoms: _180  and  _183
REMARK   71  A    between atoms: _186  and  _188
REMARK   72  A    between atoms: _188  and  _189
REMARK   73  A    between atoms: _188  and  _191
REMARK   74  A    between atoms: _191  and  _192
REMARK   75  A    between atoms: _195  and  _197
REMARK   76  A    between atoms: _197  and  _198
REMARK   77  A    between atoms: _201  and  _203
REMARK   78  A    between atoms: _203  and  _204
REMARK   79  A    between atoms: _203  and  _206
REMARK   80  A    between atoms: _206  and  _207
REMARK   81  A    between atoms: _212  and  _214
REMARK   82  A    between atoms: _214  and  _215
REMARK   83  A    between atoms: _218  and  _220
REMARK   84  A    between atoms: _220  and  _221
REMARK   85  A    between atoms: _220  and  _223
REMARK   86  A    between atoms: _226  and  _228
REMARK   87  A    between atoms: _228  and  _229
REMARK   88  A    between atoms: _228  and  _231
REMARK   89  A    between atoms: _231  and  _232
REMARK   90  A    between atoms: _237  and  _238
REMARK   91  A    between atoms: _240  and  _242
REMARK   92  A    between atoms: _242  and  _243
REMARK   93  A    between atoms: _242  and  _245
REMARK   94  A    between atoms: _245  and  _246
REMARK                            x       y       z     vdW  Elec       q    Type
REMARK                         _______ _______ _______ _____ _____    ______ ____
ROOT
ATOM      1  O   HOH     1      13.296   9.265 116.249  0.00  0.00    +0.000 OA
ENDROOT
TORSDOF 0
REMARK  Name = ../refined-set-2016/2vmc/2vmc_pocket.pdb
REMARK  94 active torsions:
REMARK  status: ('A' for Active; 'I' for Inactive)
REMARK    1  A    between atoms: _1  and  _3
REMARK    2  A    between atoms: _3  and  _4
REMARK    3  A    between atoms: _6  and  _8
REMARK    4  A    between atoms: _8  and  _9
REMARK    5  A    between atoms: _8  and  _11
REMARK    6  A    between atoms: _11  and  _12
REMARK    7  A    between atoms: _14  and  _16
REMARK    8  A    between atoms: _16  and  _17
REMARK    9  A    between atoms: _16  and  _19
REMARK   10  A    between atoms: _19  and  _20
REMARK   11  A    between atoms: _20  and  _21
REMARK   12  A    between atoms: _21  and  _22
REMARK   13  A    between atoms: _31  and  _33
REMARK   14  A    between atoms: _33  and  _34
REMARK   15  A    between atoms: _33  and  _36
REMARK   16  A    between atoms: _36  and  _37
REMARK   17  A    between atoms: _40  and  _42
REMARK   18  A    between atoms: _42  and  _43
REMARK   19  A    between atoms: _42  and  _45
REMARK   20  A    between atoms: _45  and  _46
REMARK   21  A    between atoms: _46  and  _47
REMARK   22  A    between atoms: _52  and  _54
REMARK   23  A    between atoms: _54  and  _55
REMARK   24  A    between atoms: _54  and  _57
REMARK   25  A    between atoms: _57  and  _58
REMARK   26  A    between atoms: _58  and  _59
REMARK   27  A    between atoms: _61  and  _63
REMARK   28  A    between atoms: _63  and  _64
REMARK   29  A    between atoms: _63  and  _66
REMARK   30  A    between atoms: _66  and  _67
REMARK   31  A    between atoms: _67  and  _68
REMARK   32  A    between atoms: _68  and  _69
REMARK   33  A    between atoms: _78  and  _80
REMARK   34  A    between atoms: _80  and  _81
REMARK   35  A    between atoms: _80  and  _83
REMARK   36  A    between atoms: _83  and  _84
REMARK   37  A    between atoms: _94  and  _96
REMARK   38  A    between atoms: _96  and  _97
REMARK   39  A    between atoms: _96  and  _99
REMARK   40  A    between atoms: _99  and  _100
REMARK   41  A    between atoms: _110  and  _112
REMARK   42  A    between atoms: _112  and  _113
REMARK   43  A    between atoms: _115  and  _117
REMARK   44  A    between atoms: _117  and  _118
REMARK   45  A    between atoms: _117  and  _120
REMARK   46  A    between atoms: _120  and  _121
REMARK   47  A    between atoms: _126  and  _128
REMARK   48  A    between atoms: _128  and  _129
REMARK   49  A    between atoms: _128  and  _131
REMARK   50  A    between atoms: _131  and  _132
REMARK   51  A    between atoms: _137  and  _139
REMARK   52  A    between atoms: _139  and  _140
REMARK   53  A    between atoms: _139  and  _142
REMARK   54  A    between atoms: _142  and  _143
REMARK   55  A    between atoms: _143  and  _144
REMARK   56  A    between atoms: _144  and  _145
REMARK   57  A    between atoms: _154  and  _156
REMARK   58  A    between atoms: _156  and  _157
REMARK   59  A    between atoms: _156  and  _159
REMARK   60  A    between atoms: _159  and  _160
REMARK   61  A    between atoms: _165  and  _167
REMARK   62  A    between atoms: _167  and  _168
REMARK   63  A    between atoms: _167  and  _170
REMARK   64  A    between atoms: _170  and  _171
REMARK   65  A    between atoms: _171  and  _172
REMARK   66  A    between atoms: _172  and  _173
REMARK   67  A    between atoms: _173  and  _174
REMARK   68  A    between atoms: _178  and  _180
REMARK   69  A    between atoms: _180  and  _181
REMARK   70  A    between atoms: _180  and  _183
REMARK   71  A    between atoms: _186  and  _188
REMARK   72  A    between atoms: _188  and  _189
REMARK   73  A    between atoms: _188  and  _191
REMARK   74  A    between atoms: _191  and  _192
REMARK   75  A    between atoms: _195  and  _197
REMARK   76  A    between atoms: _197  and  _198
REMARK   77  A    between atoms: _201  and  _203
REMARK   78  A    between atoms: _203  and  _204
REMARK   79  A    between atoms: _203  and  _206
REMARK   80  A    between atoms: _206  and  _207
REMARK   81  A    between atoms: _212  and  _214
REMARK   82  A    between atoms: _214  and  _215
REMARK   83  A    between atoms: _218  and  _220
REMARK   84  A    between atoms: _220  and  _221
REMARK   85  A    between atoms: _220  and  _223
REMARK   86  A    between atoms: _226  and  _228
REMARK   87  A    between atoms: _228  and  _229
REMARK   88  A    between atoms: _228  and  _231
REMARK   89  A    between atoms: _231  and  _232
REMARK   90  A    between atoms: _237  and  _238
REMARK   91  A    between atoms: _240  and  _242
REMARK   92  A    between atoms: _242  and  _243
REMARK   93  A    between atoms: _242  and  _245
REMARK   94  A    between atoms: _245  and  _246
REMARK                            x       y       z     vdW  Elec       q    Type
REMARK                         _______ _______ _______ _____ _____    ______ ____
ROOT
ATOM      1  O   HOH     1       5.967  11.527 128.549  0.00  0.00    +0.000 OA
ENDROOT
TORSDOF 0
REMARK  Name = ../refined-set-2016/2vmc/2vmc_pocket.pdb
REMARK  94 active torsions:
REMARK  status: ('A' for Active; 'I' for Inactive)
REMARK    1  A    between atoms: _1  and  _3
REMARK    2  A    between atoms: _3  and  _4
REMARK    3  A    between atoms: _6  and  _8
REMARK    4  A    between atoms: _8  and  _9
REMARK    5  A    between atoms: _8  and  _11
REMARK    6  A    between atoms: _11  and  _12
REMARK    7  A    between atoms: _14  and  _16
REMARK    8  A    between atoms: _16  and  _17
REMARK    9  A    between atoms: _16  and  _19
REMARK   10  A    between atoms: _19  and  _20
REMARK   11  A    between atoms: _20  and  _21
REMARK   12  A    between atoms: _21  and  _22
REMARK   13  A    between atoms: _31  and  _33
REMARK   14  A    between atoms: _33  and  _34
REMARK   15  A    between atoms: _33  and  _36
REMARK   16  A    between atoms: _36  and  _37
REMARK   17  A    between atoms: _40  and  _42
REMARK   18  A    between atoms: _42  and  _43
REMARK   19  A    between atoms: _42  and  _45
REMARK   20  A    between atoms: _45  and  _46
REMARK   21  A    between atoms: _46  and  _47
REMARK   22  A    between atoms: _52  and  _54
REMARK   23  A    between atoms: _54  and  _55
REMARK   24  A    between atoms: _54  and  _57
REMARK   25  A    between atoms: _57  and  _58
REMARK   26  A    between atoms: _58  and  _59
REMARK   27  A    between atoms: _61  and  _63
REMARK   28  A    between atoms: _63  and  _64
REMARK   29  A    between atoms: _63  and  _66
REMARK   30  A    between atoms: _66  and  _67
REMARK   31  A    between atoms: _67  and  _68
REMARK   32  A    between atoms: _68  and  _69
REMARK   33  A    between atoms: _78  and  _80
REMARK   34  A    between atoms: _80  and  _81
REMARK   35  A    between atoms: _80  and  _83
REMARK   36  A    between atoms: _83  and  _84
REMARK   37  A    between atoms: _94  and  _96
REMARK   38  A    between atoms: _96  and  _97
REMARK   39  A    between atoms: _96  and  _99
REMARK   40  A    between atoms: _99  and  _100
REMARK   41  A    between atoms: _110  and  _112
REMARK   42  A    between atoms: _112  and  _113
REMARK   43  A    between atoms: _115  and  _117
REMARK   44  A    between atoms: _117  and  _118
REMARK   45  A    between atoms: _117  and  _120
REMARK   46  A    between atoms: _120  and  _121
REMARK   47  A    between atoms: _126  and  _128
REMARK   48  A    between atoms: _128  and  _129
REMARK   49  A    between atoms: _128  and  _131
REMARK   50  A    between atoms: _131  and  _132
REMARK   51  A    between atoms: _137  and  _139
REMARK   52  A    between atoms: _139  and  _140
REMARK   53  A    between atoms: _139  and  _142
REMARK   54  A    between atoms: _142  and  _143
REMARK   55  A    between atoms: _143  and  _144
REMARK   56  A    between atoms: _144  and  _145
REMARK   57  A    between atoms: _154  and  _156
REMARK   58  A    between atoms: _156  and  _157
REMARK   59  A    between atoms: _156  and  _159
REMARK   60  A    between atoms: _159  and  _160
REMARK   61  A    between atoms: _165  and  _167
REMARK   62  A    between atoms: _167  and  _168
REMARK   63  A    between atoms: _167  and  _170
REMARK   64  A    between atoms: _170  and  _171
REMARK   65  A    between atoms: _171  and  _172
REMARK   66  A    between atoms: _172  and  _173
REMARK   67  A    between atoms: _173  and  _174
REMARK   68  A    between atoms: _178  and  _180
REMARK   69  A    between atoms: _180  and  _181
REMARK   70  A    between atoms: _180  and  _183
REMARK   71  A    between atoms: _186  and  _188
REMARK   72  A    between atoms: _188  and  _189
REMARK   73  A    between atoms: _188  and  _191
REMARK   74  A    between atoms: _191  and  _192
REMARK   75  A    between atoms: _195  and  _197
REMARK   76  A    between atoms: _197  and  _198
REMARK   77  A    between atoms: _201  and  _203
REMARK   78  A    between atoms: _203  and  _204
REMARK   79  A    between atoms: _203  and  _206
REMARK   80  A    between atoms: _206  and  _207
REMARK   81  A    between atoms: _212  and  _214
REMARK   82  A    between atoms: _214  and  _215
REMARK   83  A    between atoms: _218  and  _220
REMARK   84  A    between atoms: _220  and  _221
REMARK   85  A    between atoms: _220  and  _223
REMARK   86  A    between atoms: _226  and  _228
REMARK   87  A    between atoms: _228  and  _229
REMARK   88  A    between atoms: _228  and  _231
REMARK   89  A    between atoms: _231  and  _232
REMARK   90  A    between atoms: _237  and  _238
REMARK   91  A    between atoms: _240  and  _242
REMARK   92  A    between atoms: _242  and  _243
REMARK   93  A    between atoms: _242  and  _245
REMARK   94  A    between atoms: _245  and  _246
REMARK                            x       y       z     vdW  Elec       q    Type
REMARK                         _______ _______ _______ _____ _____    ______ ____
ROOT
ATOM      1  O   HOH     1      16.426   4.789 124.743  0.00  0.00    +0.000 OA
ENDROOT
TORSDOF 0
REMARK  Name = ../refined-set-2016/2vmc/2vmc_pocket.pdb
REMARK  94 active torsions:
REMARK  status: ('A' for Active; 'I' for Inactive)
REMARK    1  A    between atoms: _1  and  _3
REMARK    2  A    between atoms: _3  and  _4
REMARK    3  A    between atoms: _6  and  _8
REMARK    4  A    between atoms: _8  and  _9
REMARK    5  A    between atoms: _8  and  _11
REMARK    6  A    between atoms: _11  and  _12
REMARK    7  A    between atoms: _14  and  _16
REMARK    8  A    between atoms: _16  and  _17
REMARK    9  A    between atoms: _16  and  _19
REMARK   10  A    between atoms: _19  and  _20
REMARK   11  A    between atoms: _20  and  _21
REMARK   12  A    between atoms: _21  and  _22
REMARK   13  A    between atoms: _31  and  _33
REMARK   14  A    between atoms: _33  and  _34
REMARK   15  A    between atoms: _33  and  _36
REMARK   16  A    between atoms: _36  and  _37
REMARK   17  A    between atoms: _40  and  _42
REMARK   18  A    between atoms: _42  and  _43
REMARK   19  A    between atoms: _42  and  _45
REMARK   20  A    between atoms: _45  and  _46
REMARK   21  A    between atoms: _46  and  _47
REMARK   22  A    between atoms: _52  and  _54
REMARK   23  A    between atoms: _54  and  _55
REMARK   24  A    between atoms: _54  and  _57
REMARK   25  A    between atoms: _57  and  _58
REMARK   26  A    between atoms: _58  and  _59
REMARK   27  A    between atoms: _61  and  _63
REMARK   28  A    between atoms: _63  and  _64
REMARK   29  A    between atoms: _63  and  _66
REMARK   30  A    between atoms: _66  and  _67
REMARK   31  A    between atoms: _67  and  _68
REMARK   32  A    between atoms: _68  and  _69
REMARK   33  A    between atoms: _78  and  _80
REMARK   34  A    between atoms: _80  and  _81
REMARK   35  A    between atoms: _80  and  _83
REMARK   36  A    between atoms: _83  and  _84
REMARK   37  A    between atoms: _94  and  _96
REMARK   38  A    between atoms: _96  and  _97
REMARK   39  A    between atoms: _96  and  _99
REMARK   40  A    between atoms: _99  and  _100
REMARK   41  A    between atoms: _110  and  _112
REMARK   42  A    between atoms: _112  and  _113
REMARK   43  A    between atoms: _115  and  _117
REMARK   44  A    between atoms: _117  and  _118
REMARK   45  A    between atoms: _117  and  _120
REMARK   46  A    between atoms: _120  and  _121
REMARK   47  A    between atoms: _126  and  _128
REMARK   48  A    between atoms: _128  and  _129
REMARK   49  A    between atoms: _128  and  _131
REMARK   50  A    between atoms: _131  and  _132
REMARK   51  A    between atoms: _137  and  _139
REMARK   52  A    between atoms: _139  and  _140
REMARK   53  A    between atoms: _139  and  _142
REMARK   54  A    between atoms: _142  and  _143
REMARK   55  A    between atoms: _143  and  _144
REMARK   56  A    between atoms: _144  and  _145
REMARK   57  A    between atoms: _154  and  _156
REMARK   58  A    between atoms: _156  and  _157
REMARK   59  A    between atoms: _156  and  _159
REMARK   60  A    between atoms: _159  and  _160
REMARK   61  A    between atoms: _165  and  _167
REMARK   62  A    between atoms: _167  and  _168
REMARK   63  A    between atoms: _167  and  _170
REMARK   64  A    between atoms: _170  and  _171
REMARK   65  A    between atoms: _171  and  _172
REMARK   66  A    between atoms: _172  and  _173
REMARK   67  A    between atoms: _173  and  _174
REMARK   68  A    between atoms: _178  and  _180
REMARK   69  A    between atoms: _180  and  _181
REMARK   70  A    between atoms: _180  and  _183
REMARK   71  A    between atoms: _186  and  _188
REMARK   72  A    between atoms: _188  and  _189
REMARK   73  A    between atoms: _188  and  _191
REMARK   74  A    between atoms: _191  and  _192
REMARK   75  A    between atoms: _195  and  _197
REMARK   76  A    between atoms: _197  and  _198
REMARK   77  A    between atoms: _201  and  _203
REMARK   78  A    between atoms: _203  and  _204
REMARK   79  A    between atoms: _203  and  _206
REMARK   80  A    between atoms: _206  and  _207
REMARK   81  A    between atoms: _212  and  _214
REMARK   82  A    between atoms: _214  and  _215
REMARK   83  A    between atoms: _218  and  _220
REMARK   84  A    between atoms: _220  and  _221
REMARK   85  A    between atoms: _220  and  _223
REMARK   86  A    between atoms: _226  and  _228
REMARK   87  A    between atoms: _228  and  _229
REMARK   88  A    between atoms: _228  and  _231
REMARK   89  A    between atoms: _231  and  _232
REMARK   90  A    between atoms: _237  and  _238
REMARK   91  A    between atoms: _240  and  _242
REMARK   92  A    between atoms: _242  and  _243
REMARK   93  A    between atoms: _242  and  _245
REMARK   94  A    between atoms: _245  and  _246
REMARK                            x       y       z     vdW  Elec       q    Type
REMARK                         _______ _______ _______ _____ _____    ______ ____
ROOT
ATOM      1  O   HOH     1      16.003   4.103 115.317  0.00  0.00    +0.000 OA
ENDROOT
TORSDOF 0
REMARK  Name = ../refined-set-2016/2vmc/2vmc_pocket.pdb
REMARK  94 active torsions:
REMARK  status: ('A' for Active; 'I' for Inactive)
REMARK    1  A    between atoms: _1  and  _3
REMARK    2  A    between atoms: _3  and  _4
REMARK    3  A    between atoms: _6  and  _8
REMARK    4  A    between atoms: _8  and  _9
REMARK    5  A    between atoms: _8  and  _11
REMARK    6  A    between atoms: _11  and  _12
REMARK    7  A    between atoms: _14  and  _16
REMARK    8  A    between atoms: _16  and  _17
REMARK    9  A    between atoms: _16  and  _19
REMARK   10  A    between atoms: _19  and  _20
REMARK   11  A    between atoms: _20  and  _21
REMARK   12  A    between atoms: _21  and  _22
REMARK   13  A    between atoms: _31  and  _33
REMARK   14  A    between atoms: _33  and  _34
REMARK   15  A    between atoms: _33  and  _36
REMARK   16  A    between atoms: _36  and  _37
REMARK   17  A    between atoms: _40  and  _42
REMARK   18  A    between atoms: _42  and  _43
REMARK   19  A    between atoms: _42  and  _45
REMARK   20  A    between atoms: _45  and  _46
REMARK   21  A    between atoms: _46  and  _47
REMARK   22  A    between atoms: _52  and  _54
REMARK   23  A    between atoms: _54  and  _55
REMARK   24  A    between atoms: _54  and  _57
REMARK   25  A    between atoms: _57  and  _58
REMARK   26  A    between atoms: _58  and  _59
REMARK   27  A    between atoms: _61  and  _63
REMARK   28  A    between atoms: _63  and  _64
REMARK   29  A    between atoms: _63  and  _66
REMARK   30  A    between atoms: _66  and  _67
REMARK   31  A    between atoms: _67  and  _68
REMARK   32  A    between atoms: _68  and  _69
REMARK   33  A    between atoms: _78  and  _80
REMARK   34  A    between atoms: _80  and  _81
REMARK   35  A    between atoms: _80  and  _83
REMARK   36  A    between atoms: _83  and  _84
REMARK   37  A    between atoms: _94  and  _96
REMARK   38  A    between atoms: _96  and  _97
REMARK   39  A    between atoms: _96  and  _99
REMARK   40  A    between atoms: _99  and  _100
REMARK   41  A    between atoms: _110  and  _112
REMARK   42  A    between atoms: _112  and  _113
REMARK   43  A    between atoms: _115  and  _117
REMARK   44  A    between atoms: _117  and  _118
REMARK   45  A    between atoms: _117  and  _120
REMARK   46  A    between atoms: _120  and  _121
REMARK   47  A    between atoms: _126  and  _128
REMARK   48  A    between atoms: _128  and  _129
REMARK   49  A    between atoms: _128  and  _131
REMARK   50  A    between atoms: _131  and  _132
REMARK   51  A    between atoms: _137  and  _139
REMARK   52  A    between atoms: _139  and  _140
REMARK   53  A    between atoms: _139  and  _142
REMARK   54  A    between atoms: _142  and  _143
REMARK   55  A    between atoms: _143  and  _144
REMARK   56  A    between atoms: _144  and  _145
REMARK   57  A    between atoms: _154  and  _156
REMARK   58  A    between atoms: _156  and  _157
REMARK   59  A    between atoms: _156  and  _159
REMARK   60  A    between atoms: _159  and  _160
REMARK   61  A    between atoms: _165  and  _167
REMARK   62  A    between atoms: _167  and  _168
REMARK   63  A    between atoms: _167  and  _170
REMARK   64  A    between atoms: _170  and  _171
REMARK   65  A    between atoms: _171  and  _172
REMARK   66  A    between atoms: _172  and  _173
REMARK   67  A    between atoms: _173  and  _174
REMARK   68  A    between atoms: _178  and  _180
REMARK   69  A    between atoms: _180  and  _181
REMARK   70  A    between atoms: _180  and  _183
REMARK   71  A    between atoms: _186  and  _188
REMARK   72  A    between atoms: _188  and  _189
REMARK   73  A    between atoms: _188  and  _191
REMARK   74  A    between atoms: _191  and  _192
REMARK   75  A    between atoms: _195  and  _197
REMARK   76  A    between atoms: _197  and  _198
REMARK   77  A    between atoms: _201  and  _203
REMARK   78  A    between atoms: _203  and  _204
REMARK   79  A    between atoms: _203  and  _206
REMARK   80  A    between atoms: _206  and  _207
REMARK   81  A    between atoms: _212  and  _214
REMARK   82  A    between atoms: _214  and  _215
REMARK   83  A    between atoms: _218  and  _220
REMARK   84  A    between atoms: _220  and  _221
REMARK   85  A    between atoms: _220  and  _223
REMARK   86  A    between atoms: _226  and  _228
REMARK   87  A    between atoms: _228  and  _229
REMARK   88  A    between atoms: _228  and  _231
REMARK   89  A    between atoms: _231  and  _232
REMARK   90  A    between atoms: _237  and  _238
REMARK   91  A    between atoms: _240  and  _242
REMARK   92  A    between atoms: _242  and  _243
REMARK   93  A    between atoms: _242  and  _245
REMARK   94  A    between atoms: _245  and  _246
REMARK                            x       y       z     vdW  Elec       q    Type
REMARK                         _______ _______ _______ _____ _____    ______ ____
ROOT
ATOM      1  O   HOH     1      20.007   5.271 120.531  0.00  0.00    +0.000 OA
ENDROOT
TORSDOF 0
REMARK  Name = ../refined-set-2016/2vmc/2vmc_pocket.pdb
REMARK  94 active torsions:
REMARK  status: ('A' for Active; 'I' for Inactive)
REMARK    1  A    between atoms: _1  and  _3
REMARK    2  A    between atoms: _3  and  _4
REMARK    3  A    between atoms: _6  and  _8
REMARK    4  A    between atoms: _8  and  _9
REMARK    5  A    between atoms: _8  and  _11
REMARK    6  A    between atoms: _11  and  _12
REMARK    7  A    between atoms: _14  and  _16
REMARK    8  A    between atoms: _16  and  _17
REMARK    9  A    between atoms: _16  and  _19
REMARK   10  A    between atoms: _19  and  _20
REMARK   11  A    between atoms: _20  and  _21
REMARK   12  A    between atoms: _21  and  _22
REMARK   13  A    between atoms: _31  and  _33
REMARK   14  A    between atoms: _33  and  _34
REMARK   15  A    between atoms: _33  and  _36
REMARK   16  A    between atoms: _36  and  _37
REMARK   17  A    between atoms: _40  and  _42
REMARK   18  A    between atoms: _42  and  _43
REMARK   19  A    between atoms: _42  and  _45
REMARK   20  A    between atoms: _45  and  _46
REMARK   21  A    between atoms: _46  and  _47
REMARK   22  A    between atoms: _52  and  _54
REMARK   23  A    between atoms: _54  and  _55
REMARK   24  A    between atoms: _54  and  _57
REMARK   25  A    between atoms: _57  and  _58
REMARK   26  A    between atoms: _58  and  _59
REMARK   27  A    between atoms: _61  and  _63
REMARK   28  A    between atoms: _63  and  _64
REMARK   29  A    between atoms: _63  and  _66
REMARK   30  A    between atoms: _66  and  _67
REMARK   31  A    between atoms: _67  and  _68
REMARK   32  A    between atoms: _68  and  _69
REMARK   33  A    between atoms: _78  and  _80
REMARK   34  A    between atoms: _80  and  _81
REMARK   35  A    between atoms: _80  and  _83
REMARK   36  A    between atoms: _83  and  _84
REMARK   37  A    between atoms: _94  and  _96
REMARK   38  A    between atoms: _96  and  _97
REMARK   39  A    between atoms: _96  and  _99
REMARK   40  A    between atoms: _99  and  _100
REMARK   41  A    between atoms: _110  and  _112
REMARK   42  A    between atoms: _112  and  _113
REMARK   43  A    between atoms: _115  and  _117
REMARK   44  A    between atoms: _117  and  _118
REMARK   45  A    between atoms: _117  and  _120
REMARK   46  A    between atoms: _120  and  _121
REMARK   47  A    between atoms: _126  and  _128
REMARK   48  A    between atoms: _128  and  _129
REMARK   49  A    between atoms: _128  and  _131
REMARK   50  A    between atoms: _131  and  _132
REMARK   51  A    between atoms: _137  and  _139
REMARK   52  A    between atoms: _139  and  _140
REMARK   53  A    between atoms: _139  and  _142
REMARK   54  A    between atoms: _142  and  _143
REMARK   55  A    between atoms: _143  and  _144
REMARK   56  A    between atoms: _144  and  _145
REMARK   57  A    between atoms: _154  and  _156
REMARK   58  A    between atoms: _156  and  _157
REMARK   59  A    between atoms: _156  and  _159
REMARK   60  A    between atoms: _159  and  _160
REMARK   61  A    between atoms: _165  and  _167
REMARK   62  A    between atoms: _167  and  _168
REMARK   63  A    between atoms: _167  and  _170
REMARK   64  A    between atoms: _170  and  _171
REMARK   65  A    between atoms: _171  and  _172
REMARK   66  A    between atoms: _172  and  _173
REMARK   67  A    between atoms: _173  and  _174
REMARK   68  A    between atoms: _178  and  _180
REMARK   69  A    between atoms: _180  and  _181
REMARK   70  A    between atoms: _180  and  _183
REMARK   71  A    between atoms: _186  and  _188
REMARK   72  A    between atoms: _188  and  _189
REMARK   73  A    between atoms: _188  and  _191
REMARK   74  A    between atoms: _191  and  _192
REMARK   75  A    between atoms: _195  and  _197
REMARK   76  A    between atoms: _197  and  _198
REMARK   77  A    between atoms: _201  and  _203
REMARK   78  A    between atoms: _203  and  _204
REMARK   79  A    between atoms: _203  and  _206
REMARK   80  A    between atoms: _206  and  _207
REMARK   81  A    between atoms: _212  and  _214
REMARK   82  A    between atoms: _214  and  _215
REMARK   83  A    between atoms: _218  and  _220
REMARK   84  A    between atoms: _220  and  _221
REMARK   85  A    between atoms: _220  and  _223
REMARK   86  A    between atoms: _226  and  _228
REMARK   87  A    between atoms: _228  and  _229
REMARK   88  A    between atoms: _228  and  _231
REMARK   89  A    between atoms: _231  and  _232
REMARK   90  A    between atoms: _237  and  _238
REMARK   91  A    between atoms: _240  and  _242
REMARK   92  A    between atoms: _242  and  _243
REMARK   93  A    between atoms: _242  and  _245
REMARK   94  A    between atoms: _245  and  _246
REMARK                            x       y       z     vdW  Elec       q    Type
REMARK                         _______ _______ _______ _____ _____    ______ ____
ROOT
ATOM      1  O   HOH     1      12.310   4.927 126.939  0.00  0.00    +0.000 OA
ENDROOT
TORSDOF 0
REMARK  Name = ../refined-set-2016/2vmc/2vmc_pocket.pdb
REMARK  94 active torsions:
REMARK  status: ('A' for Active; 'I' for Inactive)
REMARK    1  A    between atoms: _1  and  _3
REMARK    2  A    between atoms: _3  and  _4
REMARK    3  A    between atoms: _6  and  _8
REMARK    4  A    between atoms: _8  and  _9
REMARK    5  A    between atoms: _8  and  _11
REMARK    6  A    between atoms: _11  and  _12
REMARK    7  A    between atoms: _14  and  _16
REMARK    8  A    between atoms: _16  and  _17
REMARK    9  A    between atoms: _16  and  _19
REMARK   10  A    between atoms: _19  and  _20
REMARK   11  A    between atoms: _20  and  _21
REMARK   12  A    between atoms: _21  and  _22
REMARK   13  A    between atoms: _31  and  _33
REMARK   14  A    between atoms: _33  and  _34
REMARK   15  A    between atoms: _33  and  _36
REMARK   16  A    between atoms: _36  and  _37
REMARK   17  A    between atoms: _40  and  _42
REMARK   18  A    between atoms: _42  and  _43
REMARK   19  A    between atoms: _42  and  _45
REMARK   20  A    between atoms: _45  and  _46
REMARK   21  A    between atoms: _46  and  _47
REMARK   22  A    between atoms: _52  and  _54
REMARK   23  A    between atoms: _54  and  _55
REMARK   24  A    between atoms: _54  and  _57
REMARK   25  A    between atoms: _57  and  _58
REMARK   26  A    between atoms: _58  and  _59
REMARK   27  A    between atoms: _61  and  _63
REMARK   28  A    between atoms: _63  and  _64
REMARK   29  A    between atoms: _63  and  _66
REMARK   30  A    between atoms: _66  and  _67
REMARK   31  A    between atoms: _67  and  _68
REMARK   32  A    between atoms: _68  and  _69
REMARK   33  A    between atoms: _78  and  _80
REMARK   34  A    between atoms: _80  and  _81
REMARK   35  A    between atoms: _80  and  _83
REMARK   36  A    between atoms: _83  and  _84
REMARK   37  A    between atoms: _94  and  _96
REMARK   38  A    between atoms: _96  and  _97
REMARK   39  A    between atoms: _96  and  _99
REMARK   40  A    between atoms: _99  and  _100
REMARK   41  A    between atoms: _110  and  _112
REMARK   42  A    between atoms: _112  and  _113
REMARK   43  A    between atoms: _115  and  _117
REMARK   44  A    between atoms: _117  and  _118
REMARK   45  A    between atoms: _117  and  _120
REMARK   46  A    between atoms: _120  and  _121
REMARK   47  A    between atoms: _126  and  _128
REMARK   48  A    between atoms: _128  and  _129
REMARK   49  A    between atoms: _128  and  _131
REMARK   50  A    between atoms: _131  and  _132
REMARK   51  A    between atoms: _137  and  _139
REMARK   52  A    between atoms: _139  and  _140
REMARK   53  A    between atoms: _139  and  _142
REMARK   54  A    between atoms: _142  and  _143
REMARK   55  A    between atoms: _143  and  _144
REMARK   56  A    between atoms: _144  and  _145
REMARK   57  A    between atoms: _154  and  _156
REMARK   58  A    between atoms: _156  and  _157
REMARK   59  A    between atoms: _156  and  _159
REMARK   60  A    between atoms: _159  and  _160
REMARK   61  A    between atoms: _165  and  _167
REMARK   62  A    between atoms: _167  and  _168
REMARK   63  A    between atoms: _167  and  _170
REMARK   64  A    between atoms: _170  and  _171
REMARK   65  A    between atoms: _171  and  _172
REMARK   66  A    between atoms: _172  and  _173
REMARK   67  A    between atoms: _173  and  _174
REMARK   68  A    between atoms: _178  and  _180
REMARK   69  A    between atoms: _180  and  _181
REMARK   70  A    between atoms: _180  and  _183
REMARK   71  A    between atoms: _186  and  _188
REMARK   72  A    between atoms: _188  and  _189
REMARK   73  A    between atoms: _188  and  _191
REMARK   74  A    between atoms: _191  and  _192
REMARK   75  A    between atoms: _195  and  _197
REMARK   76  A    between atoms: _197  and  _198
REMARK   77  A    between atoms: _201  and  _203
REMARK   78  A    between atoms: _203  and  _204
REMARK   79  A    between atoms: _203  and  _206
REMARK   80  A    between atoms: _206  and  _207
REMARK   81  A    between atoms: _212  and  _214
REMARK   82  A    between atoms: _214  and  _215
REMARK   83  A    between atoms: _218  and  _220
REMARK   84  A    between atoms: _220  and  _221
REMARK   85  A    between atoms: _220  and  _223
REMARK   86  A    between atoms: _226  and  _228
REMARK   87  A    between atoms: _228  and  _229
REMARK   88  A    between atoms: _228  and  _231
REMARK   89  A    between atoms: _231  and  _232
REMARK   90  A    between atoms: _237  and  _238
REMARK   91  A    between atoms: _240  and  _242
REMARK   92  A    between atoms: _242  and  _243
REMARK   93  A    between atoms: _242  and  _245
REMARK   94  A    between atoms: _245  and  _246
REMARK                            x       y       z     vdW  Elec       q    Type
REMARK                         _______ _______ _______ _____ _____    ______ ____
ROOT
ATOM      1  O   HOH     1       8.429   5.728 126.654  0.00  0.00    +0.000 OA
ENDROOT
TORSDOF 0
REMARK  Name = ../refined-set-2016/2vmc/2vmc_pocket.pdb
REMARK  94 active torsions:
REMARK  status: ('A' for Active; 'I' for Inactive)
REMARK    1  A    between atoms: _1  and  _3
REMARK    2  A    between atoms: _3  and  _4
REMARK    3  A    between atoms: _6  and  _8
REMARK    4  A    between atoms: _8  and  _9
REMARK    5  A    between atoms: _8  and  _11
REMARK    6  A    between atoms: _11  and  _12
REMARK    7  A    between atoms: _14  and  _16
REMARK    8  A    between atoms: _16  and  _17
REMARK    9  A    between atoms: _16  and  _19
REMARK   10  A    between atoms: _19  and  _20
REMARK   11  A    between atoms: _20  and  _21
REMARK   12  A    between atoms: _21  and  _22
REMARK   13  A    between atoms: _31  and  _33
REMARK   14  A    between atoms: _33  and  _34
REMARK   15  A    between atoms: _33  and  _36
REMARK   16  A    between atoms: _36  and  _37
REMARK   17  A    between atoms: _40  and  _42
REMARK   18  A    between atoms: _42  and  _43
REMARK   19  A    between atoms: _42  and  _45
REMARK   20  A    between atoms: _45  and  _46
REMARK   21  A    between atoms: _46  and  _47
REMARK   22  A    between atoms: _52  and  _54
REMARK   23  A    between atoms: _54  and  _55
REMARK   24  A    between atoms: _54  and  _57
REMARK   25  A    between atoms: _57  and  _58
REMARK   26  A    between atoms: _58  and  _59
REMARK   27  A    between atoms: _61  and  _63
REMARK   28  A    between atoms: _63  and  _64
REMARK   29  A    between atoms: _63  and  _66
REMARK   30  A    between atoms: _66  and  _67
REMARK   31  A    between atoms: _67  and  _68
REMARK   32  A    between atoms: _68  and  _69
REMARK   33  A    between atoms: _78  and  _80
REMARK   34  A    between atoms: _80  and  _81
REMARK   35  A    between atoms: _80  and  _83
REMARK   36  A    between atoms: _83  and  _84
REMARK   37  A    between atoms: _94  and  _96
REMARK   38  A    between atoms: _96  and  _97
REMARK   39  A    between atoms: _96  and  _99
REMARK   40  A    between atoms: _99  and  _100
REMARK   41  A    between atoms: _110  and  _112
REMARK   42  A    between atoms: _112  and  _113
REMARK   43  A    between atoms: _115  and  _117
REMARK   44  A    between atoms: _117  and  _118
REMARK   45  A    between atoms: _117  and  _120
REMARK   46  A    between atoms: _120  and  _121
REMARK   47  A    between atoms: _126  and  _128
REMARK   48  A    between atoms: _128  and  _129
REMARK   49  A    between atoms: _128  and  _131
REMARK   50  A    between atoms: _131  and  _132
REMARK   51  A    between atoms: _137  and  _139
REMARK   52  A    between atoms: _139  and  _140
REMARK   53  A    between atoms: _139  and  _142
REMARK   54  A    between atoms: _142  and  _143
REMARK   55  A    between atoms: _143  and  _144
REMARK   56  A    between atoms: _144  and  _145
REMARK   57  A    between atoms: _154  and  _156
REMARK   58  A    between atoms: _156  and  _157
REMARK   59  A    between atoms: _156  and  _159
REMARK   60  A    between atoms: _159  and  _160
REMARK   61  A    between atoms: _165  and  _167
REMARK   62  A    between atoms: _167  and  _168
REMARK   63  A    between atoms: _167  and  _170
REMARK   64  A    between atoms: _170  and  _171
REMARK   65  A    between atoms: _171  and  _172
REMARK   66  A    between atoms: _172  and  _173
REMARK   67  A    between atoms: _173  and  _174
REMARK   68  A    between atoms: _178  and  _180
REMARK   69  A    between atoms: _180  and  _181
REMARK   70  A    between atoms: _180  and  _183
REMARK   71  A    between atoms: _186  and  _188
REMARK   72  A    between atoms: _188  and  _189
REMARK   73  A    between atoms: _188  and  _191
REMARK   74  A    between atoms: _191  and  _192
REMARK   75  A    between atoms: _195  and  _197
REMARK   76  A    between atoms: _197  and  _198
REMARK   77  A    between atoms: _201  and  _203
REMARK   78  A    between atoms: _203  and  _204
REMARK   79  A    between atoms: _203  and  _206
REMARK   80  A    between atoms: _206  and  _207
REMARK   81  A    between atoms: _212  and  _214
REMARK   82  A    between atoms: _214  and  _215
REMARK   83  A    between atoms: _218  and  _220
REMARK   84  A    between atoms: _220  and  _221
REMARK   85  A    between atoms: _220  and  _223
REMARK   86  A    between atoms: _226  and  _228
REMARK   87  A    between atoms: _228  and  _229
REMARK   88  A    between atoms: _228  and  _231
REMARK   89  A    between atoms: _231  and  _232
REMARK   90  A    between atoms: _237  and  _238
REMARK   91  A    between atoms: _240  and  _242
REMARK   92  A    between atoms: _242  and  _243
REMARK   93  A    between atoms: _242  and  _245
REMARK   94  A    between atoms: _245  and  _246
REMARK                            x       y       z     vdW  Elec       q    Type
REMARK                         _______ _______ _______ _____ _____    ______ ____
ROOT
ATOM      1  O   HOH     1       9.630   6.075 129.008  0.00  0.00    +0.000 OA
ENDROOT
TORSDOF 0
REMARK  Name = ../refined-set-2016/2vmc/2vmc_pocket.pdb
REMARK  94 active torsions:
REMARK  status: ('A' for Active; 'I' for Inactive)
REMARK    1  A    between atoms: _1  and  _3
REMARK    2  A    between atoms: _3  and  _4
REMARK    3  A    between atoms: _6  and  _8
REMARK    4  A    between atoms: _8  and  _9
REMARK    5  A    between atoms: _8  and  _11
REMARK    6  A    between atoms: _11  and  _12
REMARK    7  A    between atoms: _14  and  _16
REMARK    8  A    between atoms: _16  and  _17
REMARK    9  A    between atoms: _16  and  _19
REMARK   10  A    between atoms: _19  and  _20
REMARK   11  A    between atoms: _20  and  _21
REMARK   12  A    between atoms: _21  and  _22
REMARK   13  A    between atoms: _31  and  _33
REMARK   14  A    between atoms: _33  and  _34
REMARK   15  A    between atoms: _33  and  _36
REMARK   16  A    between atoms: _36  and  _37
REMARK   17  A    between atoms: _40  and  _42
REMARK   18  A    between atoms: _42  and  _43
REMARK   19  A    between atoms: _42  and  _45
REMARK   20  A    between atoms: _45  and  _46
REMARK   21  A    between atoms: _46  and  _47
REMARK   22  A    between atoms: _52  and  _54
REMARK   23  A    between atoms: _54  and  _55
REMARK   24  A    between atoms: _54  and  _57
REMARK   25  A    between atoms: _57  and  _58
REMARK   26  A    between atoms: _58  and  _59
REMARK   27  A    between atoms: _61  and  _63
REMARK   28  A    between atoms: _63  and  _64
REMARK   29  A    between atoms: _63  and  _66
REMARK   30  A    between atoms: _66  and  _67
REMARK   31  A    between atoms: _67  and  _68
REMARK   32  A    between atoms: _68  and  _69
REMARK   33  A    between atoms: _78  and  _80
REMARK   34  A    between atoms: _80  and  _81
REMARK   35  A    between atoms: _80  and  _83
REMARK   36  A    between atoms: _83  and  _84
REMARK   37  A    between atoms: _94  and  _96
REMARK   38  A    between atoms: _96  and  _97
REMARK   39  A    between atoms: _96  and  _99
REMARK   40  A    between atoms: _99  and  _100
REMARK   41  A    between atoms: _110  and  _112
REMARK   42  A    between atoms: _112  and  _113
REMARK   43  A    between atoms: _115  and  _117
REMARK   44  A    between atoms: _117  and  _118
REMARK   45  A    between atoms: _117  and  _120
REMARK   46  A    between atoms: _120  and  _121
REMARK   47  A    between atoms: _126  and  _128
REMARK   48  A    between atoms: _128  and  _129
REMARK   49  A    between atoms: _128  and  _131
REMARK   50  A    between atoms: _131  and  _132
REMARK   51  A    between atoms: _137  and  _139
REMARK   52  A    between atoms: _139  and  _140
REMARK   53  A    between atoms: _139  and  _142
REMARK   54  A    between atoms: _142  and  _143
REMARK   55  A    between atoms: _143  and  _144
REMARK   56  A    between atoms: _144  and  _145
REMARK   57  A    between atoms: _154  and  _156
REMARK   58  A    between atoms: _156  and  _157
REMARK   59  A    between atoms: _156  and  _159
REMARK   60  A    between atoms: _159  and  _160
REMARK   61  A    between atoms: _165  and  _167
REMARK   62  A    between atoms: _167  and  _168
REMARK   63  A    between atoms: _167  and  _170
REMARK   64  A    between atoms: _170  and  _171
REMARK   65  A    between atoms: _171  and  _172
REMARK   66  A    between atoms: _172  and  _173
REMARK   67  A    between atoms: _173  and  _174
REMARK   68  A    between atoms: _178  and  _180
REMARK   69  A    between atoms: _180  and  _181
REMARK   70  A    between atoms: _180  and  _183
REMARK   71  A    between atoms: _186  and  _188
REMARK   72  A    between atoms: _188  and  _189
REMARK   73  A    between atoms: _188  and  _191
REMARK   74  A    between atoms: _191  and  _192
REMARK   75  A    between atoms: _195  and  _197
REMARK   76  A    between atoms: _197  and  _198
REMARK   77  A    between atoms: _201  and  _203
REMARK   78  A    between atoms: _203  and  _204
REMARK   79  A    between atoms: _203  and  _206
REMARK   80  A    between atoms: _206  and  _207
REMARK   81  A    between atoms: _212  and  _214
REMARK   82  A    between atoms: _214  and  _215
REMARK   83  A    between atoms: _218  and  _220
REMARK   84  A    between atoms: _220  and  _221
REMARK   85  A    between atoms: _220  and  _223
REMARK   86  A    between atoms: _226  and  _228
REMARK   87  A    between atoms: _228  and  _229
REMARK   88  A    between atoms: _228  and  _231
REMARK   89  A    between atoms: _231  and  _232
REMARK   90  A    between atoms: _237  and  _238
REMARK   91  A    between atoms: _240  and  _242
REMARK   92  A    between atoms: _242  and  _243
REMARK   93  A    between atoms: _242  and  _245
REMARK   94  A    between atoms: _245  and  _246
REMARK                            x       y       z     vdW  Elec       q    Type
REMARK                         _______ _______ _______ _____ _____    ______ ____
ROOT
ATOM      1  O   HOH     1       3.397  10.718 124.942  0.00  0.00    +0.000 OA
ENDROOT
TORSDOF 0
REMARK  Name = ../refined-set-2016/2vmc/2vmc_pocket.pdb
REMARK  94 active torsions:
REMARK  status: ('A' for Active; 'I' for Inactive)
REMARK    1  A    between atoms: _1  and  _3
REMARK    2  A    between atoms: _3  and  _4
REMARK    3  A    between atoms: _6  and  _8
REMARK    4  A    between atoms: _8  and  _9
REMARK    5  A    between atoms: _8  and  _11
REMARK    6  A    between atoms: _11  and  _12
REMARK    7  A    between atoms: _14  and  _16
REMARK    8  A    between atoms: _16  and  _17
REMARK    9  A    between atoms: _16  and  _19
REMARK   10  A    between atoms: _19  and  _20
REMARK   11  A    between atoms: _20  and  _21
REMARK   12  A    between atoms: _21  and  _22
REMARK   13  A    between atoms: _31  and  _33
REMARK   14  A    between atoms: _33  and  _34
REMARK   15  A    between atoms: _33  and  _36
REMARK   16  A    between atoms: _36  and  _37
REMARK   17  A    between atoms: _40  and  _42
REMARK   18  A    between atoms: _42  and  _43
REMARK   19  A    between atoms: _42  and  _45
REMARK   20  A    between atoms: _45  and  _46
REMARK   21  A    between atoms: _46  and  _47
REMARK   22  A    between atoms: _52  and  _54
REMARK   23  A    between atoms: _54  and  _55
REMARK   24  A    between atoms: _54  and  _57
REMARK   25  A    between atoms: _57  and  _58
REMARK   26  A    between atoms: _58  and  _59
REMARK   27  A    between atoms: _61  and  _63
REMARK   28  A    between atoms: _63  and  _64
REMARK   29  A    between atoms: _63  and  _66
REMARK   30  A    between atoms: _66  and  _67
REMARK   31  A    between atoms: _67  and  _68
REMARK   32  A    between atoms: _68  and  _69
REMARK   33  A    between atoms: _78  and  _80
REMARK   34  A    between atoms: _80  and  _81
REMARK   35  A    between atoms: _80  and  _83
REMARK   36  A    between atoms: _83  and  _84
REMARK   37  A    between atoms: _94  and  _96
REMARK   38  A    between atoms: _96  and  _97
REMARK   39  A    between atoms: _96  and  _99
REMARK   40  A    between atoms: _99  and  _100
REMARK   41  A    between atoms: _110  and  _112
REMARK   42  A    between atoms: _112  and  _113
REMARK   43  A    between atoms: _115  and  _117
REMARK   44  A    between atoms: _117  and  _118
REMARK   45  A    between atoms: _117  and  _120
REMARK   46  A    between atoms: _120  and  _121
REMARK   47  A    between atoms: _126  and  _128
REMARK   48  A    between atoms: _128  and  _129
REMARK   49  A    between atoms: _128  and  _131
REMARK   50  A    between atoms: _131  and  _132
REMARK   51  A    between atoms: _137  and  _139
REMARK   52  A    between atoms: _139  and  _140
REMARK   53  A    between atoms: _139  and  _142
REMARK   54  A    between atoms: _142  and  _143
REMARK   55  A    between atoms: _143  and  _144
REMARK   56  A    between atoms: _144  and  _145
REMARK   57  A    between atoms: _154  and  _156
REMARK   58  A    between atoms: _156  and  _157
REMARK   59  A    between atoms: _156  and  _159
REMARK   60  A    between atoms: _159  and  _160
REMARK   61  A    between atoms: _165  and  _167
REMARK   62  A    between atoms: _167  and  _168
REMARK   63  A    between atoms: _167  and  _170
REMARK   64  A    between atoms: _170  and  _171
REMARK   65  A    between atoms: _171  and  _172
REMARK   66  A    between atoms: _172  and  _173
REMARK   67  A    between atoms: _173  and  _174
REMARK   68  A    between atoms: _178  and  _180
REMARK   69  A    between atoms: _180  and  _181
REMARK   70  A    between atoms: _180  and  _183
REMARK   71  A    between atoms: _186  and  _188
REMARK   72  A    between atoms: _188  and  _189
REMARK   73  A    between atoms: _188  and  _191
REMARK   74  A    between atoms: _191  and  _192
REMARK   75  A    between atoms: _195  and  _197
REMARK   76  A    between atoms: _197  and  _198
REMARK   77  A    between atoms: _201  and  _203
REMARK   78  A    between atoms: _203  and  _204
REMARK   79  A    between atoms: _203  and  _206
REMARK   80  A    between atoms: _206  and  _207
REMARK   81  A    between atoms: _212  and  _214
REMARK   82  A    between atoms: _214  and  _215
REMARK   83  A    between atoms: _218  and  _220
REMARK   84  A    between atoms: _220  and  _221
REMARK   85  A    between atoms: _220  and  _223
REMARK   86  A    between atoms: _226  and  _228
REMARK   87  A    between atoms: _228  and  _229
REMARK   88  A    between atoms: _228  and  _231
REMARK   89  A    between atoms: _231  and  _232
REMARK   90  A    between atoms: _237  and  _238
REMARK   91  A    between atoms: _240  and  _242
REMARK   92  A    between atoms: _242  and  _243
REMARK   93  A    between atoms: _242  and  _245
REMARK   94  A    between atoms: _245  and  _246
REMARK                            x       y       z     vdW  Elec       q    Type
REMARK                         _______ _______ _______ _____ _____    ______ ____
ROOT
ATOM      1  O   HOH     1      12.766   7.133 113.830  0.00  0.00    +0.000 OA
ENDROOT
TORSDOF 0
REMARK  Name = ../refined-set-2016/2vmc/2vmc_pocket.pdb
REMARK  94 active torsions:
REMARK  status: ('A' for Active; 'I' for Inactive)
REMARK    1  A    between atoms: _1  and  _3
REMARK    2  A    between atoms: _3  and  _4
REMARK    3  A    between atoms: _6  and  _8
REMARK    4  A    between atoms: _8  and  _9
REMARK    5  A    between atoms: _8  and  _11
REMARK    6  A    between atoms: _11  and  _12
REMARK    7  A    between atoms: _14  and  _16
REMARK    8  A    between atoms: _16  and  _17
REMARK    9  A    between atoms: _16  and  _19
REMARK   10  A    between atoms: _19  and  _20
REMARK   11  A    between atoms: _20  and  _21
REMARK   12  A    between atoms: _21  and  _22
REMARK   13  A    between atoms: _31  and  _33
REMARK   14  A    between atoms: _33  and  _34
REMARK   15  A    between atoms: _33  and  _36
REMARK   16  A    between atoms: _36  and  _37
REMARK   17  A    between atoms: _40  and  _42
REMARK   18  A    between atoms: _42  and  _43
REMARK   19  A    between atoms: _42  and  _45
REMARK   20  A    between atoms: _45  and  _46
REMARK   21  A    between atoms: _46  and  _47
REMARK   22  A    between atoms: _52  and  _54
REMARK   23  A    between atoms: _54  and  _55
REMARK   24  A    between atoms: _54  and  _57
REMARK   25  A    between atoms: _57  and  _58
REMARK   26  A    between atoms: _58  and  _59
REMARK   27  A    between atoms: _61  and  _63
REMARK   28  A    between atoms: _63  and  _64
REMARK   29  A    between atoms: _63  and  _66
REMARK   30  A    between atoms: _66  and  _67
REMARK   31  A    between atoms: _67  and  _68
REMARK   32  A    between atoms: _68  and  _69
REMARK   33  A    between atoms: _78  and  _80
REMARK   34  A    between atoms: _80  and  _81
REMARK   35  A    between atoms: _80  and  _83
REMARK   36  A    between atoms: _83  and  _84
REMARK   37  A    between atoms: _94  and  _96
REMARK   38  A    between atoms: _96  and  _97
REMARK   39  A    between atoms: _96  and  _99
REMARK   40  A    between atoms: _99  and  _100
REMARK   41  A    between atoms: _110  and  _112
REMARK   42  A    between atoms: _112  and  _113
REMARK   43  A    between atoms: _115  and  _117
REMARK   44  A    between atoms: _117  and  _118
REMARK   45  A    between atoms: _117  and  _120
REMARK   46  A    between atoms: _120  and  _121
REMARK   47  A    between atoms: _126  and  _128
REMARK   48  A    between atoms: _128  and  _129
REMARK   49  A    between atoms: _128  and  _131
REMARK   50  A    between atoms: _131  and  _132
REMARK   51  A    between atoms: _137  and  _139
REMARK   52  A    between atoms: _139  and  _140
REMARK   53  A    between atoms: _139  and  _142
REMARK   54  A    between atoms: _142  and  _143
REMARK   55  A    between atoms: _143  and  _144
REMARK   56  A    between atoms: _144  and  _145
REMARK   57  A    between atoms: _154  and  _156
REMARK   58  A    between atoms: _156  and  _157
REMARK   59  A    between atoms: _156  and  _159
REMARK   60  A    between atoms: _159  and  _160
REMARK   61  A    between atoms: _165  and  _167
REMARK   62  A    between atoms: _167  and  _168
REMARK   63  A    between atoms: _167  and  _170
REMARK   64  A    between atoms: _170  and  _171
REMARK   65  A    between atoms: _171  and  _172
REMARK   66  A    between atoms: _172  and  _173
REMARK   67  A    between atoms: _173  and  _174
REMARK   68  A    between atoms: _178  and  _180
REMARK   69  A    between atoms: _180  and  _181
REMARK   70  A    between atoms: _180  and  _183
REMARK   71  A    between atoms: _186  and  _188
REMARK   72  A    between atoms: _188  and  _189
REMARK   73  A    between atoms: _188  and  _191
REMARK   74  A    between atoms: _191  and  _192
REMARK   75  A    between atoms: _195  and  _197
REMARK   76  A    between atoms: _197  and  _198
REMARK   77  A    between atoms: _201  and  _203
REMARK   78  A    between atoms: _203  and  _204
REMARK   79  A    between atoms: _203  and  _206
REMARK   80  A    between atoms: _206  and  _207
REMARK   81  A    between atoms: _212  and  _214
REMARK   82  A    between atoms: _214  and  _215
REMARK   83  A    between atoms: _218  and  _220
REMARK   84  A    between atoms: _220  and  _221
REMARK   85  A    between atoms: _220  and  _223
REMARK   86  A    between atoms: _226  and  _228
REMARK   87  A    between atoms: _228  and  _229
REMARK   88  A    between atoms: _228  and  _231
REMARK   89  A    between atoms: _231  and  _232
REMARK   90  A    between atoms: _237  and  _238
REMARK   91  A    between atoms: _240  and  _242
REMARK   92  A    between atoms: _242  and  _243
REMARK   93  A    between atoms: _242  and  _245
REMARK   94  A    between atoms: _245  and  _246
REMARK                            x       y       z     vdW  Elec       q    Type
REMARK                         _______ _______ _______ _____ _____    ______ ____
ROOT
ATOM      1  O   HOH     1      15.721   6.127 121.549  0.00  0.00    +0.000 OA
ENDROOT
TORSDOF 0
REMARK  Name = ../refined-set-2016/2vmc/2vmc_pocket.pdb
REMARK  94 active torsions:
REMARK  status: ('A' for Active; 'I' for Inactive)
REMARK    1  A    between atoms: _1  and  _3
REMARK    2  A    between atoms: _3  and  _4
REMARK    3  A    between atoms: _6  and  _8
REMARK    4  A    between atoms: _8  and  _9
REMARK    5  A    between atoms: _8  and  _11
REMARK    6  A    between atoms: _11  and  _12
REMARK    7  A    between atoms: _14  and  _16
REMARK    8  A    between atoms: _16  and  _17
REMARK    9  A    between atoms: _16  and  _19
REMARK   10  A    between atoms: _19  and  _20
REMARK   11  A    between atoms: _20  and  _21
REMARK   12  A    between atoms: _21  and  _22
REMARK   13  A    between atoms: _31  and  _33
REMARK   14  A    between atoms: _33  and  _34
REMARK   15  A    between atoms: _33  and  _36
REMARK   16  A    between atoms: _36  and  _37
REMARK   17  A    between atoms: _40  and  _42
REMARK   18  A    between atoms: _42  and  _43
REMARK   19  A    between atoms: _42  and  _45
REMARK   20  A    between atoms: _45  and  _46
REMARK   21  A    between atoms: _46  and  _47
REMARK   22  A    between atoms: _52  and  _54
REMARK   23  A    between atoms: _54  and  _55
REMARK   24  A    between atoms: _54  and  _57
REMARK   25  A    between atoms: _57  and  _58
REMARK   26  A    between atoms: _58  and  _59
REMARK   27  A    between atoms: _61  and  _63
REMARK   28  A    between atoms: _63  and  _64
REMARK   29  A    between atoms: _63  and  _66
REMARK   30  A    between atoms: _66  and  _67
REMARK   31  A    between atoms: _67  and  _68
REMARK   32  A    between atoms: _68  and  _69
REMARK   33  A    between atoms: _78  and  _80
REMARK   34  A    between atoms: _80  and  _81
REMARK   35  A    between atoms: _80  and  _83
REMARK   36  A    between atoms: _83  and  _84
REMARK   37  A    between atoms: _94  and  _96
REMARK   38  A    between atoms: _96  and  _97
REMARK   39  A    between atoms: _96  and  _99
REMARK   40  A    between atoms: _99  and  _100
REMARK   41  A    between atoms: _110  and  _112
REMARK   42  A    between atoms: _112  and  _113
REMARK   43  A    between atoms: _115  and  _117
REMARK   44  A    between atoms: _117  and  _118
REMARK   45  A    between atoms: _117  and  _120
REMARK   46  A    between atoms: _120  and  _121
REMARK   47  A    between atoms: _126  and  _128
REMARK   48  A    between atoms: _128  and  _129
REMARK   49  A    between atoms: _128  and  _131
REMARK   50  A    between atoms: _131  and  _132
REMARK   51  A    between atoms: _137  and  _139
REMARK   52  A    between atoms: _139  and  _140
REMARK   53  A    between atoms: _139  and  _142
REMARK   54  A    between atoms: _142  and  _143
REMARK   55  A    between atoms: _143  and  _144
REMARK   56  A    between atoms: _144  and  _145
REMARK   57  A    between atoms: _154  and  _156
REMARK   58  A    between atoms: _156  and  _157
REMARK   59  A    between atoms: _156  and  _159
REMARK   60  A    between atoms: _159  and  _160
REMARK   61  A    between atoms: _165  and  _167
REMARK   62  A    between atoms: _167  and  _168
REMARK   63  A    between atoms: _167  and  _170
REMARK   64  A    between atoms: _170  and  _171
REMARK   65  A    between atoms: _171  and  _172
REMARK   66  A    between atoms: _172  and  _173
REMARK   67  A    between atoms: _173  and  _174
REMARK   68  A    between atoms: _178  and  _180
REMARK   69  A    between atoms: _180  and  _181
REMARK   70  A    between atoms: _180  and  _183
REMARK   71  A    between atoms: _186  and  _188
REMARK   72  A    between atoms: _188  and  _189
REMARK   73  A    between atoms: _188  and  _191
REMARK   74  A    between atoms: _191  and  _192
REMARK   75  A    between atoms: _195  and  _197
REMARK   76  A    between atoms: _197  and  _198
REMARK   77  A    between atoms: _201  and  _203
REMARK   78  A    between atoms: _203  and  _204
REMARK   79  A    between atoms: _203  and  _206
REMARK   80  A    between atoms: _206  and  _207
REMARK   81  A    between atoms: _212  and  _214
REMARK   82  A    between atoms: _214  and  _215
REMARK   83  A    between atoms: _218  and  _220
REMARK   84  A    between atoms: _220  and  _221
REMARK   85  A    between atoms: _220  and  _223
REMARK   86  A    between atoms: _226  and  _228
REMARK   87  A    between atoms: _228  and  _229
REMARK   88  A    between atoms: _228  and  _231
REMARK   89  A    between atoms: _231  and  _232
REMARK   90  A    between atoms: _237  and  _238
REMARK   91  A    between atoms: _240  and  _242
REMARK   92  A    between atoms: _242  and  _243
REMARK   93  A    between atoms: _242  and  _245
REMARK   94  A    between atoms: _245  and  _246
REMARK                            x       y       z     vdW  Elec       q    Type
REMARK                         _______ _______ _______ _____ _____    ______ ____
ROOT
ATOM      1  O   HOH     1      12.604  12.623 119.988  0.00  0.00    +0.000 OA
ENDROOT
TORSDOF 0
REMARK  Name = ../refined-set-2016/2vmc/2vmc_pocket.pdb
REMARK  94 active torsions:
REMARK  status: ('A' for Active; 'I' for Inactive)
REMARK    1  A    between atoms: _1  and  _3
REMARK    2  A    between atoms: _3  and  _4
REMARK    3  A    between atoms: _6  and  _8
REMARK    4  A    between atoms: _8  and  _9
REMARK    5  A    between atoms: _8  and  _11
REMARK    6  A    between atoms: _11  and  _12
REMARK    7  A    between atoms: _14  and  _16
REMARK    8  A    between atoms: _16  and  _17
REMARK    9  A    between atoms: _16  and  _19
REMARK   10  A    between atoms: _19  and  _20
REMARK   11  A    between atoms: _20  and  _21
REMARK   12  A    between atoms: _21  and  _22
REMARK   13  A    between atoms: _31  and  _33
REMARK   14  A    between atoms: _33  and  _34
REMARK   15  A    between atoms: _33  and  _36
REMARK   16  A    between atoms: _36  and  _37
REMARK   17  A    between atoms: _40  and  _42
REMARK   18  A    between atoms: _42  and  _43
REMARK   19  A    between atoms: _42  and  _45
REMARK   20  A    between atoms: _45  and  _46
REMARK   21  A    between atoms: _46  and  _47
REMARK   22  A    between atoms: _52  and  _54
REMARK   23  A    between atoms: _54  and  _55
REMARK   24  A    between atoms: _54  and  _57
REMARK   25  A    between atoms: _57  and  _58
REMARK   26  A    between atoms: _58  and  _59
REMARK   27  A    between atoms: _61  and  _63
REMARK   28  A    between atoms: _63  and  _64
REMARK   29  A    between atoms: _63  and  _66
REMARK   30  A    between atoms: _66  and  _67
REMARK   31  A    between atoms: _67  and  _68
REMARK   32  A    between atoms: _68  and  _69
REMARK   33  A    between atoms: _78  and  _80
REMARK   34  A    between atoms: _80  and  _81
REMARK   35  A    between atoms: _80  and  _83
REMARK   36  A    between atoms: _83  and  _84
REMARK   37  A    between atoms: _94  and  _96
REMARK   38  A    between atoms: _96  and  _97
REMARK   39  A    between atoms: _96  and  _99
REMARK   40  A    between atoms: _99  and  _100
REMARK   41  A    between atoms: _110  and  _112
REMARK   42  A    between atoms: _112  and  _113
REMARK   43  A    between atoms: _115  and  _117
REMARK   44  A    between atoms: _117  and  _118
REMARK   45  A    between atoms: _117  and  _120
REMARK   46  A    between atoms: _120  and  _121
REMARK   47  A    between atoms: _126  and  _128
REMARK   48  A    between atoms: _128  and  _129
REMARK   49  A    between atoms: _128  and  _131
REMARK   50  A    between atoms: _131  and  _132
REMARK   51  A    between atoms: _137  and  _139
REMARK   52  A    between atoms: _139  and  _140
REMARK   53  A    between atoms: _139  and  _142
REMARK   54  A    between atoms: _142  and  _143
REMARK   55  A    between atoms: _143  and  _144
REMARK   56  A    between atoms: _144  and  _145
REMARK   57  A    between atoms: _154  and  _156
REMARK   58  A    between atoms: _156  and  _157
REMARK   59  A    between atoms: _156  and  _159
REMARK   60  A    between atoms: _159  and  _160
REMARK   61  A    between atoms: _165  and  _167
REMARK   62  A    between atoms: _167  and  _168
REMARK   63  A    between atoms: _167  and  _170
REMARK   64  A    between atoms: _170  and  _171
REMARK   65  A    between atoms: _171  and  _172
REMARK   66  A    between atoms: _172  and  _173
REMARK   67  A    between atoms: _173  and  _174
REMARK   68  A    between atoms: _178  and  _180
REMARK   69  A    between atoms: _180  and  _181
REMARK   70  A    between atoms: _180  and  _183
REMARK   71  A    between atoms: _186  and  _188
REMARK   72  A    between atoms: _188  and  _189
REMARK   73  A    between atoms: _188  and  _191
REMARK   74  A    between atoms: _191  and  _192
REMARK   75  A    between atoms: _195  and  _197
REMARK   76  A    between atoms: _197  and  _198
REMARK   77  A    between atoms: _201  and  _203
REMARK   78  A    between atoms: _203  and  _204
REMARK   79  A    between atoms: _203  and  _206
REMARK   80  A    between atoms: _206  and  _207
REMARK   81  A    between atoms: _212  and  _214
REMARK   82  A    between atoms: _214  and  _215
REMARK   83  A    between atoms: _218  and  _220
REMARK   84  A    between atoms: _220  and  _221
REMARK   85  A    between atoms: _220  and  _223
REMARK   86  A    between atoms: _226  and  _228
REMARK   87  A    between atoms: _228  and  _229
REMARK   88  A    between atoms: _228  and  _231
REMARK   89  A    between atoms: _231  and  _232
REMARK   90  A    between atoms: _237  and  _238
REMARK   91  A    between atoms: _240  and  _242
REMARK   92  A    between atoms: _242  and  _243
REMARK   93  A    between atoms: _242  and  _245
REMARK   94  A    between atoms: _245  and  _246
REMARK                            x       y       z     vdW  Elec       q    Type
REMARK                         _______ _______ _______ _____ _____    ______ ____
ROOT
ATOM      1  O   HOH     1      10.578  14.287 122.688  0.00  0.00    +0.000 OA
ENDROOT
TORSDOF 0
REMARK  Name = ../refined-set-2016/2vmc/2vmc_pocket.pdb
REMARK  94 active torsions:
REMARK  status: ('A' for Active; 'I' for Inactive)
REMARK    1  A    between atoms: _1  and  _3
REMARK    2  A    between atoms: _3  and  _4
REMARK    3  A    between atoms: _6  and  _8
REMARK    4  A    between atoms: _8  and  _9
REMARK    5  A    between atoms: _8  and  _11
REMARK    6  A    between atoms: _11  and  _12
REMARK    7  A    between atoms: _14  and  _16
REMARK    8  A    between atoms: _16  and  _17
REMARK    9  A    between atoms: _16  and  _19
REMARK   10  A    between atoms: _19  and  _20
REMARK   11  A    between atoms: _20  and  _21
REMARK   12  A    between atoms: _21  and  _22
REMARK   13  A    between atoms: _31  and  _33
REMARK   14  A    between atoms: _33  and  _34
REMARK   15  A    between atoms: _33  and  _36
REMARK   16  A    between atoms: _36  and  _37
REMARK   17  A    between atoms: _40  and  _42
REMARK   18  A    between atoms: _42  and  _43
REMARK   19  A    between atoms: _42  and  _45
REMARK   20  A    between atoms: _45  and  _46
REMARK   21  A    between atoms: _46  and  _47
REMARK   22  A    between atoms: _52  and  _54
REMARK   23  A    between atoms: _54  and  _55
REMARK   24  A    between atoms: _54  and  _57
REMARK   25  A    between atoms: _57  and  _58
REMARK   26  A    between atoms: _58  and  _59
REMARK   27  A    between atoms: _61  and  _63
REMARK   28  A    between atoms: _63  and  _64
REMARK   29  A    between atoms: _63  and  _66
REMARK   30  A    between atoms: _66  and  _67
REMARK   31  A    between atoms: _67  and  _68
REMARK   32  A    between atoms: _68  and  _69
REMARK   33  A    between atoms: _78  and  _80
REMARK   34  A    between atoms: _80  and  _81
REMARK   35  A    between atoms: _80  and  _83
REMARK   36  A    between atoms: _83  and  _84
REMARK   37  A    between atoms: _94  and  _96
REMARK   38  A    between atoms: _96  and  _97
REMARK   39  A    between atoms: _96  and  _99
REMARK   40  A    between atoms: _99  and  _100
REMARK   41  A    between atoms: _110  and  _112
REMARK   42  A    between atoms: _112  and  _113
REMARK   43  A    between atoms: _115  and  _117
REMARK   44  A    between atoms: _117  and  _118
REMARK   45  A    between atoms: _117  and  _120
REMARK   46  A    between atoms: _120  and  _121
REMARK   47  A    between atoms: _126  and  _128
REMARK   48  A    between atoms: _128  and  _129
REMARK   49  A    between atoms: _128  and  _131
REMARK   50  A    between atoms: _131  and  _132
REMARK   51  A    between atoms: _137  and  _139
REMARK   52  A    between atoms: _139  and  _140
REMARK   53  A    between atoms: _139  and  _142
REMARK   54  A    between atoms: _142  and  _143
REMARK   55  A    between atoms: _143  and  _144
REMARK   56  A    between atoms: _144  and  _145
REMARK   57  A    between atoms: _154  and  _156
REMARK   58  A    between atoms: _156  and  _157
REMARK   59  A    between atoms: _156  and  _159
REMARK   60  A    between atoms: _159  and  _160
REMARK   61  A    between atoms: _165  and  _167
REMARK   62  A    between atoms: _167  and  _168
REMARK   63  A    between atoms: _167  and  _170
REMARK   64  A    between atoms: _170  and  _171
REMARK   65  A    between atoms: _171  and  _172
REMARK   66  A    between atoms: _172  and  _173
REMARK   67  A    between atoms: _173  and  _174
REMARK   68  A    between atoms: _178  and  _180
REMARK   69  A    between atoms: _180  and  _181
REMARK   70  A    between atoms: _180  and  _183
REMARK   71  A    between atoms: _186  and  _188
REMARK   72  A    between atoms: _188  and  _189
REMARK   73  A    between atoms: _188  and  _191
REMARK   74  A    between atoms: _191  and  _192
REMARK   75  A    between atoms: _195  and  _197
REMARK   76  A    between atoms: _197  and  _198
REMARK   77  A    between atoms: _201  and  _203
REMARK   78  A    between atoms: _203  and  _204
REMARK   79  A    between atoms: _203  and  _206
REMARK   80  A    between atoms: _206  and  _207
REMARK   81  A    between atoms: _212  and  _214
REMARK   82  A    between atoms: _214  and  _215
REMARK   83  A    between atoms: _218  and  _220
REMARK   84  A    between atoms: _220  and  _221
REMARK   85  A    between atoms: _220  and  _223
REMARK   86  A    between atoms: _226  and  _228
REMARK   87  A    between atoms: _228  and  _229
REMARK   88  A    between atoms: _228  and  _231
REMARK   89  A    between atoms: _231  and  _232
REMARK   90  A    between atoms: _237  and  _238
REMARK   91  A    between atoms: _240  and  _242
REMARK   92  A    between atoms: _242  and  _243
REMARK   93  A    between atoms: _242  and  _245
REMARK   94  A    between atoms: _245  and  _246
REMARK                            x       y       z     vdW  Elec       q    Type
REMARK                         _______ _______ _______ _____ _____    ______ ____
ROOT
ATOM      1  O   HOH     1      13.183  11.716 125.372  0.00  0.00    +0.000 OA
ENDROOT
TORSDOF 0
REMARK  Name = ../refined-set-2016/2vmc/2vmc_pocket.pdb
REMARK  94 active torsions:
REMARK  status: ('A' for Active; 'I' for Inactive)
REMARK    1  A    between atoms: _1  and  _3
REMARK    2  A    between atoms: _3  and  _4
REMARK    3  A    between atoms: _6  and  _8
REMARK    4  A    between atoms: _8  and  _9
REMARK    5  A    between atoms: _8  and  _11
REMARK    6  A    between atoms: _11  and  _12
REMARK    7  A    between atoms: _14  and  _16
REMARK    8  A    between atoms: _16  and  _17
REMARK    9  A    between atoms: _16  and  _19
REMARK   10  A    between atoms: _19  and  _20
REMARK   11  A    between atoms: _20  and  _21
REMARK   12  A    between atoms: _21  and  _22
REMARK   13  A    between atoms: _31  and  _33
REMARK   14  A    between atoms: _33  and  _34
REMARK   15  A    between atoms: _33  and  _36
REMARK   16  A    between atoms: _36  and  _37
REMARK   17  A    between atoms: _40  and  _42
REMARK   18  A    between atoms: _42  and  _43
REMARK   19  A    between atoms: _42  and  _45
REMARK   20  A    between atoms: _45  and  _46
REMARK   21  A    between atoms: _46  and  _47
REMARK   22  A    between atoms: _52  and  _54
REMARK   23  A    between atoms: _54  and  _55
REMARK   24  A    between atoms: _54  and  _57
REMARK   25  A    between atoms: _57  and  _58
REMARK   26  A    between atoms: _58  and  _59
REMARK   27  A    between atoms: _61  and  _63
REMARK   28  A    between atoms: _63  and  _64
REMARK   29  A    between atoms: _63  and  _66
REMARK   30  A    between atoms: _66  and  _67
REMARK   31  A    between atoms: _67  and  _68
REMARK   32  A    between atoms: _68  and  _69
REMARK   33  A    between atoms: _78  and  _80
REMARK   34  A    between atoms: _80  and  _81
REMARK   35  A    between atoms: _80  and  _83
REMARK   36  A    between atoms: _83  and  _84
REMARK   37  A    between atoms: _94  and  _96
REMARK   38  A    between atoms: _96  and  _97
REMARK   39  A    between atoms: _96  and  _99
REMARK   40  A    between atoms: _99  and  _100
REMARK   41  A    between atoms: _110  and  _112
REMARK   42  A    between atoms: _112  and  _113
REMARK   43  A    between atoms: _115  and  _117
REMARK   44  A    between atoms: _117  and  _118
REMARK   45  A    between atoms: _117  and  _120
REMARK   46  A    between atoms: _120  and  _121
REMARK   47  A    between atoms: _126  and  _128
REMARK   48  A    between atoms: _128  and  _129
REMARK   49  A    between atoms: _128  and  _131
REMARK   50  A    between atoms: _131  and  _132
REMARK   51  A    between atoms: _137  and  _139
REMARK   52  A    between atoms: _139  and  _140
REMARK   53  A    between atoms: _139  and  _142
REMARK   54  A    between atoms: _142  and  _143
REMARK   55  A    between atoms: _143  and  _144
REMARK   56  A    between atoms: _144  and  _145
REMARK   57  A    between atoms: _154  and  _156
REMARK   58  A    between atoms: _156  and  _157
REMARK   59  A    between atoms: _156  and  _159
REMARK   60  A    between atoms: _159  and  _160
REMARK   61  A    between atoms: _165  and  _167
REMARK   62  A    between atoms: _167  and  _168
REMARK   63  A    between atoms: _167  and  _170
REMARK   64  A    between atoms: _170  and  _171
REMARK   65  A    between atoms: _171  and  _172
REMARK   66  A    between atoms: _172  and  _173
REMARK   67  A    between atoms: _173  and  _174
REMARK   68  A    between atoms: _178  and  _180
REMARK   69  A    between atoms: _180  and  _181
REMARK   70  A    between atoms: _180  and  _183
REMARK   71  A    between atoms: _186  and  _188
REMARK   72  A    between atoms: _188  and  _189
REMARK   73  A    between atoms: _188  and  _191
REMARK   74  A    between atoms: _191  and  _192
REMARK   75  A    between atoms: _195  and  _197
REMARK   76  A    between atoms: _197  and  _198
REMARK   77  A    between atoms: _201  and  _203
REMARK   78  A    between atoms: _203  and  _204
REMARK   79  A    between atoms: _203  and  _206
REMARK   80  A    between atoms: _206  and  _207
REMARK   81  A    between atoms: _212  and  _214
REMARK   82  A    between atoms: _214  and  _215
REMARK   83  A    between atoms: _218  and  _220
REMARK   84  A    between atoms: _220  and  _221
REMARK   85  A    between atoms: _220  and  _223
REMARK   86  A    between atoms: _226  and  _228
REMARK   87  A    between atoms: _228  and  _229
REMARK   88  A    between atoms: _228  and  _231
REMARK   89  A    between atoms: _231  and  _232
REMARK   90  A    between atoms: _237  and  _238
REMARK   91  A    between atoms: _240  and  _242
REMARK   92  A    between atoms: _242  and  _243
REMARK   93  A    between atoms: _242  and  _245
REMARK   94  A    between atoms: _245  and  _246
REMARK                            x       y       z     vdW  Elec       q    Type
REMARK                         _______ _______ _______ _____ _____    ______ ____
ROOT
ATOM      1  O   HOH     1       5.613   9.658 126.162  0.00  0.00    +0.000 OA
ENDROOT
TORSDOF 0
REMARK  Name = ../refined-set-2016/2vmc/2vmc_pocket.pdb
REMARK  94 active torsions:
REMARK  status: ('A' for Active; 'I' for Inactive)
REMARK    1  A    between atoms: _1  and  _3
REMARK    2  A    between atoms: _3  and  _4
REMARK    3  A    between atoms: _6  and  _8
REMARK    4  A    between atoms: _8  and  _9
REMARK    5  A    between atoms: _8  and  _11
REMARK    6  A    between atoms: _11  and  _12
REMARK    7  A    between atoms: _14  and  _16
REMARK    8  A    between atoms: _16  and  _17
REMARK    9  A    between atoms: _16  and  _19
REMARK   10  A    between atoms: _19  and  _20
REMARK   11  A    between atoms: _20  and  _21
REMARK   12  A    between atoms: _21  and  _22
REMARK   13  A    between atoms: _31  and  _33
REMARK   14  A    between atoms: _33  and  _34
REMARK   15  A    between atoms: _33  and  _36
REMARK   16  A    between atoms: _36  and  _37
REMARK   17  A    between atoms: _40  and  _42
REMARK   18  A    between atoms: _42  and  _43
REMARK   19  A    between atoms: _42  and  _45
REMARK   20  A    between atoms: _45  and  _46
REMARK   21  A    between atoms: _46  and  _47
REMARK   22  A    between atoms: _52  and  _54
REMARK   23  A    between atoms: _54  and  _55
REMARK   24  A    between atoms: _54  and  _57
REMARK   25  A    between atoms: _57  and  _58
REMARK   26  A    between atoms: _58  and  _59
REMARK   27  A    between atoms: _61  and  _63
REMARK   28  A    between atoms: _63  and  _64
REMARK   29  A    between atoms: _63  and  _66
REMARK   30  A    between atoms: _66  and  _67
REMARK   31  A    between atoms: _67  and  _68
REMARK   32  A    between atoms: _68  and  _69
REMARK   33  A    between atoms: _78  and  _80
REMARK   34  A    between atoms: _80  and  _81
REMARK   35  A    between atoms: _80  and  _83
REMARK   36  A    between atoms: _83  and  _84
REMARK   37  A    between atoms: _94  and  _96
REMARK   38  A    between atoms: _96  and  _97
REMARK   39  A    between atoms: _96  and  _99
REMARK   40  A    between atoms: _99  and  _100
REMARK   41  A    between atoms: _110  and  _112
REMARK   42  A    between atoms: _112  and  _113
REMARK   43  A    between atoms: _115  and  _117
REMARK   44  A    between atoms: _117  and  _118
REMARK   45  A    between atoms: _117  and  _120
REMARK   46  A    between atoms: _120  and  _121
REMARK   47  A    between atoms: _126  and  _128
REMARK   48  A    between atoms: _128  and  _129
REMARK   49  A    between atoms: _128  and  _131
REMARK   50  A    between atoms: _131  and  _132
REMARK   51  A    between atoms: _137  and  _139
REMARK   52  A    between atoms: _139  and  _140
REMARK   53  A    between atoms: _139  and  _142
REMARK   54  A    between atoms: _142  and  _143
REMARK   55  A    between atoms: _143  and  _144
REMARK   56  A    between atoms: _144  and  _145
REMARK   57  A    between atoms: _154  and  _156
REMARK   58  A    between atoms: _156  and  _157
REMARK   59  A    between atoms: _156  and  _159
REMARK   60  A    between atoms: _159  and  _160
REMARK   61  A    between atoms: _165  and  _167
REMARK   62  A    between atoms: _167  and  _168
REMARK   63  A    between atoms: _167  and  _170
REMARK   64  A    between atoms: _170  and  _171
REMARK   65  A    between atoms: _171  and  _172
REMARK   66  A    between atoms: _172  and  _173
REMARK   67  A    between atoms: _173  and  _174
REMARK   68  A    between atoms: _178  and  _180
REMARK   69  A    between atoms: _180  and  _181
REMARK   70  A    between atoms: _180  and  _183
REMARK   71  A    between atoms: _186  and  _188
REMARK   72  A    between atoms: _188  and  _189
REMARK   73  A    between atoms: _188  and  _191
REMARK   74  A    between atoms: _191  and  _192
REMARK   75  A    between atoms: _195  and  _197
REMARK   76  A    between atoms: _197  and  _198
REMARK   77  A    between atoms: _201  and  _203
REMARK   78  A    between atoms: _203  and  _204
REMARK   79  A    between atoms: _203  and  _206
REMARK   80  A    between atoms: _206  and  _207
REMARK   81  A    between atoms: _212  and  _214
REMARK   82  A    between atoms: _214  and  _215
REMARK   83  A    between atoms: _218  and  _220
REMARK   84  A    between atoms: _220  and  _221
REMARK   85  A    between atoms: _220  and  _223
REMARK   86  A    between atoms: _226  and  _228
REMARK   87  A    between atoms: _228  and  _229
REMARK   88  A    between atoms: _228  and  _231
REMARK   89  A    between atoms: _231  and  _232
REMARK   90  A    between atoms: _237  and  _238
REMARK   91  A    between atoms: _240  and  _242
REMARK   92  A    between atoms: _242  and  _243
REMARK   93  A    between atoms: _242  and  _245
REMARK   94  A    between atoms: _245  and  _246
REMARK                            x       y       z     vdW  Elec       q    Type
REMARK                         _______ _______ _______ _____ _____    ______ ____
ROOT
ATOM      1  O   HOH     1       5.858  13.123 124.133  0.00  0.00    +0.000 OA
ENDROOT
TORSDOF 0
REMARK  Name = ../refined-set-2016/2vmc/2vmc_pocket.pdb
REMARK  94 active torsions:
REMARK  status: ('A' for Active; 'I' for Inactive)
REMARK    1  A    between atoms: _1  and  _3
REMARK    2  A    between atoms: _3  and  _4
REMARK    3  A    between atoms: _6  and  _8
REMARK    4  A    between atoms: _8  and  _9
REMARK    5  A    between atoms: _8  and  _11
REMARK    6  A    between atoms: _11  and  _12
REMARK    7  A    between atoms: _14  and  _16
REMARK    8  A    between atoms: _16  and  _17
REMARK    9  A    between atoms: _16  and  _19
REMARK   10  A    between atoms: _19  and  _20
REMARK   11  A    between atoms: _20  and  _21
REMARK   12  A    between atoms: _21  and  _22
REMARK   13  A    between atoms: _31  and  _33
REMARK   14  A    between atoms: _33  and  _34
REMARK   15  A    between atoms: _33  and  _36
REMARK   16  A    between atoms: _36  and  _37
REMARK   17  A    between atoms: _40  and  _42
REMARK   18  A    between atoms: _42  and  _43
REMARK   19  A    between atoms: _42  and  _45
REMARK   20  A    between atoms: _45  and  _46
REMARK   21  A    between atoms: _46  and  _47
REMARK   22  A    between atoms: _52  and  _54
REMARK   23  A    between atoms: _54  and  _55
REMARK   24  A    between atoms: _54  and  _57
REMARK   25  A    between atoms: _57  and  _58
REMARK   26  A    between atoms: _58  and  _59
REMARK   27  A    between atoms: _61  and  _63
REMARK   28  A    between atoms: _63  and  _64
REMARK   29  A    between atoms: _63  and  _66
REMARK   30  A    between atoms: _66  and  _67
REMARK   31  A    between atoms: _67  and  _68
REMARK   32  A    between atoms: _68  and  _69
REMARK   33  A    between atoms: _78  and  _80
REMARK   34  A    between atoms: _80  and  _81
REMARK   35  A    between atoms: _80  and  _83
REMARK   36  A    between atoms: _83  and  _84
REMARK   37  A    between atoms: _94  and  _96
REMARK   38  A    between atoms: _96  and  _97
REMARK   39  A    between atoms: _96  and  _99
REMARK   40  A    between atoms: _99  and  _100
REMARK   41  A    between atoms: _110  and  _112
REMARK   42  A    between atoms: _112  and  _113
REMARK   43  A    between atoms: _115  and  _117
REMARK   44  A    between atoms: _117  and  _118
REMARK   45  A    between atoms: _117  and  _120
REMARK   46  A    between atoms: _120  and  _121
REMARK   47  A    between atoms: _126  and  _128
REMARK   48  A    between atoms: _128  and  _129
REMARK   49  A    between atoms: _128  and  _131
REMARK   50  A    between atoms: _131  and  _132
REMARK   51  A    between atoms: _137  and  _139
REMARK   52  A    between atoms: _139  and  _140
REMARK   53  A    between atoms: _139  and  _142
REMARK   54  A    between atoms: _142  and  _143
REMARK   55  A    between atoms: _143  and  _144
REMARK   56  A    between atoms: _144  and  _145
REMARK   57  A    between atoms: _154  and  _156
REMARK   58  A    between atoms: _156  and  _157
REMARK   59  A    between atoms: _156  and  _159
REMARK   60  A    between atoms: _159  and  _160
REMARK   61  A    between atoms: _165  and  _167
REMARK   62  A    between atoms: _167  and  _168
REMARK   63  A    between atoms: _167  and  _170
REMARK   64  A    between atoms: _170  and  _171
REMARK   65  A    between atoms: _171  and  _172
REMARK   66  A    between atoms: _172  and  _173
REMARK   67  A    between atoms: _173  and  _174
REMARK   68  A    between atoms: _178  and  _180
REMARK   69  A    between atoms: _180  and  _181
REMARK   70  A    between atoms: _180  and  _183
REMARK   71  A    between atoms: _186  and  _188
REMARK   72  A    between atoms: _188  and  _189
REMARK   73  A    between atoms: _188  and  _191
REMARK   74  A    between atoms: _191  and  _192
REMARK   75  A    between atoms: _195  and  _197
REMARK   76  A    between atoms: _197  and  _198
REMARK   77  A    between atoms: _201  and  _203
REMARK   78  A    between atoms: _203  and  _204
REMARK   79  A    between atoms: _203  and  _206
REMARK   80  A    between atoms: _206  and  _207
REMARK   81  A    between atoms: _212  and  _214
REMARK   82  A    between atoms: _214  and  _215
REMARK   83  A    between atoms: _218  and  _220
REMARK   84  A    between atoms: _220  and  _221
REMARK   85  A    between atoms: _220  and  _223
REMARK   86  A    between atoms: _226  and  _228
REMARK   87  A    between atoms: _228  and  _229
REMARK   88  A    between atoms: _228  and  _231
REMARK   89  A    between atoms: _231  and  _232
REMARK   90  A    between atoms: _237  and  _238
REMARK   91  A    between atoms: _240  and  _242
REMARK   92  A    between atoms: _242  and  _243
REMARK   93  A    between atoms: _242  and  _245
REMARK   94  A    between atoms: _245  and  _246
REMARK                            x       y       z     vdW  Elec       q    Type
REMARK                         _______ _______ _______ _____ _____    ______ ____
ROOT
ATOM      1  O   HOH     1       7.712  17.197 122.528  0.00  0.00    +0.000 OA
ENDROOT
TORSDOF 0
REMARK  Name = ../refined-set-2016/2vmc/2vmc_pocket.pdb
REMARK  94 active torsions:
REMARK  status: ('A' for Active; 'I' for Inactive)
REMARK    1  A    between atoms: _1  and  _3
REMARK    2  A    between atoms: _3  and  _4
REMARK    3  A    between atoms: _6  and  _8
REMARK    4  A    between atoms: _8  and  _9
REMARK    5  A    between atoms: _8  and  _11
REMARK    6  A    between atoms: _11  and  _12
REMARK    7  A    between atoms: _14  and  _16
REMARK    8  A    between atoms: _16  and  _17
REMARK    9  A    between atoms: _16  and  _19
REMARK   10  A    between atoms: _19  and  _20
REMARK   11  A    between atoms: _20  and  _21
REMARK   12  A    between atoms: _21  and  _22
REMARK   13  A    between atoms: _31  and  _33
REMARK   14  A    between atoms: _33  and  _34
REMARK   15  A    between atoms: _33  and  _36
REMARK   16  A    between atoms: _36  and  _37
REMARK   17  A    between atoms: _40  and  _42
REMARK   18  A    between atoms: _42  and  _43
REMARK   19  A    between atoms: _42  and  _45
REMARK   20  A    between atoms: _45  and  _46
REMARK   21  A    between atoms: _46  and  _47
REMARK   22  A    between atoms: _52  and  _54
REMARK   23  A    between atoms: _54  and  _55
REMARK   24  A    between atoms: _54  and  _57
REMARK   25  A    between atoms: _57  and  _58
REMARK   26  A    between atoms: _58  and  _59
REMARK   27  A    between atoms: _61  and  _63
REMARK   28  A    between atoms: _63  and  _64
REMARK   29  A    between atoms: _63  and  _66
REMARK   30  A    between atoms: _66  and  _67
REMARK   31  A    between atoms: _67  and  _68
REMARK   32  A    between atoms: _68  and  _69
REMARK   33  A    between atoms: _78  and  _80
REMARK   34  A    between atoms: _80  and  _81
REMARK   35  A    between atoms: _80  and  _83
REMARK   36  A    between atoms: _83  and  _84
REMARK   37  A    between atoms: _94  and  _96
REMARK   38  A    between atoms: _96  and  _97
REMARK   39  A    between atoms: _96  and  _99
REMARK   40  A    between atoms: _99  and  _100
REMARK   41  A    between atoms: _110  and  _112
REMARK   42  A    between atoms: _112  and  _113
REMARK   43  A    between atoms: _115  and  _117
REMARK   44  A    between atoms: _117  and  _118
REMARK   45  A    between atoms: _117  and  _120
REMARK   46  A    between atoms: _120  and  _121
REMARK   47  A    between atoms: _126  and  _128
REMARK   48  A    between atoms: _128  and  _129
REMARK   49  A    between atoms: _128  and  _131
REMARK   50  A    between atoms: _131  and  _132
REMARK   51  A    between atoms: _137  and  _139
REMARK   52  A    between atoms: _139  and  _140
REMARK   53  A    between atoms: _139  and  _142
REMARK   54  A    between atoms: _142  and  _143
REMARK   55  A    between atoms: _143  and  _144
REMARK   56  A    between atoms: _144  and  _145
REMARK   57  A    between atoms: _154  and  _156
REMARK   58  A    between atoms: _156  and  _157
REMARK   59  A    between atoms: _156  and  _159
REMARK   60  A    between atoms: _159  and  _160
REMARK   61  A    between atoms: _165  and  _167
REMARK   62  A    between atoms: _167  and  _168
REMARK   63  A    between atoms: _167  and  _170
REMARK   64  A    between atoms: _170  and  _171
REMARK   65  A    between atoms: _171  and  _172
REMARK   66  A    between atoms: _172  and  _173
REMARK   67  A    between atoms: _173  and  _174
REMARK   68  A    between atoms: _178  and  _180
REMARK   69  A    between atoms: _180  and  _181
REMARK   70  A    between atoms: _180  and  _183
REMARK   71  A    between atoms: _186  and  _188
REMARK   72  A    between atoms: _188  and  _189
REMARK   73  A    between atoms: _188  and  _191
REMARK   74  A    between atoms: _191  and  _192
REMARK   75  A    between atoms: _195  and  _197
REMARK   76  A    between atoms: _197  and  _198
REMARK   77  A    between atoms: _201  and  _203
REMARK   78  A    between atoms: _203  and  _204
REMARK   79  A    between atoms: _203  and  _206
REMARK   80  A    between atoms: _206  and  _207
REMARK   81  A    between atoms: _212  and  _214
REMARK   82  A    between atoms: _214  and  _215
REMARK   83  A    between atoms: _218  and  _220
REMARK   84  A    between atoms: _220  and  _221
REMARK   85  A    between atoms: _220  and  _223
REMARK   86  A    between atoms: _226  and  _228
REMARK   87  A    between atoms: _228  and  _229
REMARK   88  A    between atoms: _228  and  _231
REMARK   89  A    between atoms: _231  and  _232
REMARK   90  A    between atoms: _237  and  _238
REMARK   91  A    between atoms: _240  and  _242
REMARK   92  A    between atoms: _242  and  _243
REMARK   93  A    between atoms: _242  and  _245
REMARK   94  A    between atoms: _245  and  _246
REMARK                            x       y       z     vdW  Elec       q    Type
REMARK                         _______ _______ _______ _____ _____    ______ ____
ROOT
ATOM      1  O   HOH     1      10.970  12.617 115.632  0.00  0.00    +0.000 OA
ENDROOT
TORSDOF 0
REMARK  Name = ../refined-set-2016/2vmc/2vmc_pocket.pdb
REMARK  94 active torsions:
REMARK  status: ('A' for Active; 'I' for Inactive)
REMARK    1  A    between atoms: _1  and  _3
REMARK    2  A    between atoms: _3  and  _4
REMARK    3  A    between atoms: _6  and  _8
REMARK    4  A    between atoms: _8  and  _9
REMARK    5  A    between atoms: _8  and  _11
REMARK    6  A    between atoms: _11  and  _12
REMARK    7  A    between atoms: _14  and  _16
REMARK    8  A    between atoms: _16  and  _17
REMARK    9  A    between atoms: _16  and  _19
REMARK   10  A    between atoms: _19  and  _20
REMARK   11  A    between atoms: _20  and  _21
REMARK   12  A    between atoms: _21  and  _22
REMARK   13  A    between atoms: _31  and  _33
REMARK   14  A    between atoms: _33  and  _34
REMARK   15  A    between atoms: _33  and  _36
REMARK   16  A    between atoms: _36  and  _37
REMARK   17  A    between atoms: _40  and  _42
REMARK   18  A    between atoms: _42  and  _43
REMARK   19  A    between atoms: _42  and  _45
REMARK   20  A    between atoms: _45  and  _46
REMARK   21  A    between atoms: _46  and  _47
REMARK   22  A    between atoms: _52  and  _54
REMARK   23  A    between atoms: _54  and  _55
REMARK   24  A    between atoms: _54  and  _57
REMARK   25  A    between atoms: _57  and  _58
REMARK   26  A    between atoms: _58  and  _59
REMARK   27  A    between atoms: _61  and  _63
REMARK   28  A    between atoms: _63  and  _64
REMARK   29  A    between atoms: _63  and  _66
REMARK   30  A    between atoms: _66  and  _67
REMARK   31  A    between atoms: _67  and  _68
REMARK   32  A    between atoms: _68  and  _69
REMARK   33  A    between atoms: _78  and  _80
REMARK   34  A    between atoms: _80  and  _81
REMARK   35  A    between atoms: _80  and  _83
REMARK   36  A    between atoms: _83  and  _84
REMARK   37  A    between atoms: _94  and  _96
REMARK   38  A    between atoms: _96  and  _97
REMARK   39  A    between atoms: _96  and  _99
REMARK   40  A    between atoms: _99  and  _100
REMARK   41  A    between atoms: _110  and  _112
REMARK   42  A    between atoms: _112  and  _113
REMARK   43  A    between atoms: _115  and  _117
REMARK   44  A    between atoms: _117  and  _118
REMARK   45  A    between atoms: _117  and  _120
REMARK   46  A    between atoms: _120  and  _121
REMARK   47  A    between atoms: _126  and  _128
REMARK   48  A    between atoms: _128  and  _129
REMARK   49  A    between atoms: _128  and  _131
REMARK   50  A    between atoms: _131  and  _132
REMARK   51  A    between atoms: _137  and  _139
REMARK   52  A    between atoms: _139  and  _140
REMARK   53  A    between atoms: _139  and  _142
REMARK   54  A    between atoms: _142  and  _143
REMARK   55  A    between atoms: _143  and  _144
REMARK   56  A    between atoms: _144  and  _145
REMARK   57  A    between atoms: _154  and  _156
REMARK   58  A    between atoms: _156  and  _157
REMARK   59  A    between atoms: _156  and  _159
REMARK   60  A    between atoms: _159  and  _160
REMARK   61  A    between atoms: _165  and  _167
REMARK   62  A    between atoms: _167  and  _168
REMARK   63  A    between atoms: _167  and  _170
REMARK   64  A    between atoms: _170  and  _171
REMARK   65  A    between atoms: _171  and  _172
REMARK   66  A    between atoms: _172  and  _173
REMARK   67  A    between atoms: _173  and  _174
REMARK   68  A    between atoms: _178  and  _180
REMARK   69  A    between atoms: _180  and  _181
REMARK   70  A    between atoms: _180  and  _183
REMARK   71  A    between atoms: _186  and  _188
REMARK   72  A    between atoms: _188  and  _189
REMARK   73  A    between atoms: _188  and  _191
REMARK   74  A    between atoms: _191  and  _192
REMARK   75  A    between atoms: _195  and  _197
REMARK   76  A    between atoms: _197  and  _198
REMARK   77  A    between atoms: _201  and  _203
REMARK   78  A    between atoms: _203  and  _204
REMARK   79  A    between atoms: _203  and  _206
REMARK   80  A    between atoms: _206  and  _207
REMARK   81  A    between atoms: _212  and  _214
REMARK   82  A    between atoms: _214  and  _215
REMARK   83  A    between atoms: _218  and  _220
REMARK   84  A    between atoms: _220  and  _221
REMARK   85  A    between atoms: _220  and  _223
REMARK   86  A    between atoms: _226  and  _228
REMARK   87  A    between atoms: _228  and  _229
REMARK   88  A    between atoms: _228  and  _231
REMARK   89  A    between atoms: _231  and  _232
REMARK   90  A    between atoms: _237  and  _238
REMARK   91  A    between atoms: _240  and  _242
REMARK   92  A    between atoms: _242  and  _243
REMARK   93  A    between atoms: _242  and  _245
REMARK   94  A    between atoms: _245  and  _246
REMARK                            x       y       z     vdW  Elec       q    Type
REMARK                         _______ _______ _______ _____ _____    ______ ____
ROOT
ATOM      1  O   HOH     1       9.272  17.677 119.414  0.00  0.00    +0.000 OA
ENDROOT
TORSDOF 0
REMARK  Name = ../refined-set-2016/2vmc/2vmc_pocket.pdb
REMARK  94 active torsions:
REMARK  status: ('A' for Active; 'I' for Inactive)
REMARK    1  A    between atoms: _1  and  _3
REMARK    2  A    between atoms: _3  and  _4
REMARK    3  A    between atoms: _6  and  _8
REMARK    4  A    between atoms: _8  and  _9
REMARK    5  A    between atoms: _8  and  _11
REMARK    6  A    between atoms: _11  and  _12
REMARK    7  A    between atoms: _14  and  _16
REMARK    8  A    between atoms: _16  and  _17
REMARK    9  A    between atoms: _16  and  _19
REMARK   10  A    between atoms: _19  and  _20
REMARK   11  A    between atoms: _20  and  _21
REMARK   12  A    between atoms: _21  and  _22
REMARK   13  A    between atoms: _31  and  _33
REMARK   14  A    between atoms: _33  and  _34
REMARK   15  A    between atoms: _33  and  _36
REMARK   16  A    between atoms: _36  and  _37
REMARK   17  A    between atoms: _40  and  _42
REMARK   18  A    between atoms: _42  and  _43
REMARK   19  A    between atoms: _42  and  _45
REMARK   20  A    between atoms: _45  and  _46
REMARK   21  A    between atoms: _46  and  _47
REMARK   22  A    between atoms: _52  and  _54
REMARK   23  A    between atoms: _54  and  _55
REMARK   24  A    between atoms: _54  and  _57
REMARK   25  A    between atoms: _57  and  _58
REMARK   26  A    between atoms: _58  and  _59
REMARK   27  A    between atoms: _61  and  _63
REMARK   28  A    between atoms: _63  and  _64
REMARK   29  A    between atoms: _63  and  _66
REMARK   30  A    between atoms: _66  and  _67
REMARK   31  A    between atoms: _67  and  _68
REMARK   32  A    between atoms: _68  and  _69
REMARK   33  A    between atoms: _78  and  _80
REMARK   34  A    between atoms: _80  and  _81
REMARK   35  A    between atoms: _80  and  _83
REMARK   36  A    between atoms: _83  and  _84
REMARK   37  A    between atoms: _94  and  _96
REMARK   38  A    between atoms: _96  and  _97
REMARK   39  A    between atoms: _96  and  _99
REMARK   40  A    between atoms: _99  and  _100
REMARK   41  A    between atoms: _110  and  _112
REMARK   42  A    between atoms: _112  and  _113
REMARK   43  A    between atoms: _115  and  _117
REMARK   44  A    between atoms: _117  and  _118
REMARK   45  A    between atoms: _117  and  _120
REMARK   46  A    between atoms: _120  and  _121
REMARK   47  A    between atoms: _126  and  _128
REMARK   48  A    between atoms: _128  and  _129
REMARK   49  A    between atoms: _128  and  _131
REMARK   50  A    between atoms: _131  and  _132
REMARK   51  A    between atoms: _137  and  _139
REMARK   52  A    between atoms: _139  and  _140
REMARK   53  A    between atoms: _139  and  _142
REMARK   54  A    between atoms: _142  and  _143
REMARK   55  A    between atoms: _143  and  _144
REMARK   56  A    between atoms: _144  and  _145
REMARK   57  A    between atoms: _154  and  _156
REMARK   58  A    between atoms: _156  and  _157
REMARK   59  A    between atoms: _156  and  _159
REMARK   60  A    between atoms: _159  and  _160
REMARK   61  A    between atoms: _165  and  _167
REMARK   62  A    between atoms: _167  and  _168
REMARK   63  A    between atoms: _167  and  _170
REMARK   64  A    between atoms: _170  and  _171
REMARK   65  A    between atoms: _171  and  _172
REMARK   66  A    between atoms: _172  and  _173
REMARK   67  A    between atoms: _173  and  _174
REMARK   68  A    between atoms: _178  and  _180
REMARK   69  A    between atoms: _180  and  _181
REMARK   70  A    between atoms: _180  and  _183
REMARK   71  A    between atoms: _186  and  _188
REMARK   72  A    between atoms: _188  and  _189
REMARK   73  A    between atoms: _188  and  _191
REMARK   74  A    between atoms: _191  and  _192
REMARK   75  A    between atoms: _195  and  _197
REMARK   76  A    between atoms: _197  and  _198
REMARK   77  A    between atoms: _201  and  _203
REMARK   78  A    between atoms: _203  and  _204
REMARK   79  A    between atoms: _203  and  _206
REMARK   80  A    between atoms: _206  and  _207
REMARK   81  A    between atoms: _212  and  _214
REMARK   82  A    between atoms: _214  and  _215
REMARK   83  A    between atoms: _218  and  _220
REMARK   84  A    between atoms: _220  and  _221
REMARK   85  A    between atoms: _220  and  _223
REMARK   86  A    between atoms: _226  and  _228
REMARK   87  A    between atoms: _228  and  _229
REMARK   88  A    between atoms: _228  and  _231
REMARK   89  A    between atoms: _231  and  _232
REMARK   90  A    between atoms: _237  and  _238
REMARK   91  A    between atoms: _240  and  _242
REMARK   92  A    between atoms: _242  and  _243
REMARK   93  A    between atoms: _242  and  _245
REMARK   94  A    between atoms: _245  and  _246
REMARK                            x       y       z     vdW  Elec       q    Type
REMARK                         _______ _______ _______ _____ _____    ______ ____
ROOT
ATOM      1  O   HOH     1       8.748  14.256 113.737  0.00  0.00    +0.000 OA
ENDROOT
TORSDOF 0
REMARK  Name = ../refined-set-2016/2vmc/2vmc_pocket.pdb
REMARK  94 active torsions:
REMARK  status: ('A' for Active; 'I' for Inactive)
REMARK    1  A    between atoms: _1  and  _3
REMARK    2  A    between atoms: _3  and  _4
REMARK    3  A    between atoms: _6  and  _8
REMARK    4  A    between atoms: _8  and  _9
REMARK    5  A    between atoms: _8  and  _11
REMARK    6  A    between atoms: _11  and  _12
REMARK    7  A    between atoms: _14  and  _16
REMARK    8  A    between atoms: _16  and  _17
REMARK    9  A    between atoms: _16  and  _19
REMARK   10  A    between atoms: _19  and  _20
REMARK   11  A    between atoms: _20  and  _21
REMARK   12  A    between atoms: _21  and  _22
REMARK   13  A    between atoms: _31  and  _33
REMARK   14  A    between atoms: _33  and  _34
REMARK   15  A    between atoms: _33  and  _36
REMARK   16  A    between atoms: _36  and  _37
REMARK   17  A    between atoms: _40  and  _42
REMARK   18  A    between atoms: _42  and  _43
REMARK   19  A    between atoms: _42  and  _45
REMARK   20  A    between atoms: _45  and  _46
REMARK   21  A    between atoms: _46  and  _47
REMARK   22  A    between atoms: _52  and  _54
REMARK   23  A    between atoms: _54  and  _55
REMARK   24  A    between atoms: _54  and  _57
REMARK   25  A    between atoms: _57  and  _58
REMARK   26  A    between atoms: _58  and  _59
REMARK   27  A    between atoms: _61  and  _63
REMARK   28  A    between atoms: _63  and  _64
REMARK   29  A    between atoms: _63  and  _66
REMARK   30  A    between atoms: _66  and  _67
REMARK   31  A    between atoms: _67  and  _68
REMARK   32  A    between atoms: _68  and  _69
REMARK   33  A    between atoms: _78  and  _80
REMARK   34  A    between atoms: _80  and  _81
REMARK   35  A    between atoms: _80  and  _83
REMARK   36  A    between atoms: _83  and  _84
REMARK   37  A    between atoms: _94  and  _96
REMARK   38  A    between atoms: _96  and  _97
REMARK   39  A    between atoms: _96  and  _99
REMARK   40  A    between atoms: _99  and  _100
REMARK   41  A    between atoms: _110  and  _112
REMARK   42  A    between atoms: _112  and  _113
REMARK   43  A    between atoms: _115  and  _117
REMARK   44  A    between atoms: _117  and  _118
REMARK   45  A    between atoms: _117  and  _120
REMARK   46  A    between atoms: _120  and  _121
REMARK   47  A    between atoms: _126  and  _128
REMARK   48  A    between atoms: _128  and  _129
REMARK   49  A    between atoms: _128  and  _131
REMARK   50  A    between atoms: _131  and  _132
REMARK   51  A    between atoms: _137  and  _139
REMARK   52  A    between atoms: _139  and  _140
REMARK   53  A    between atoms: _139  and  _142
REMARK   54  A    between atoms: _142  and  _143
REMARK   55  A    between atoms: _143  and  _144
REMARK   56  A    between atoms: _144  and  _145
REMARK   57  A    between atoms: _154  and  _156
REMARK   58  A    between atoms: _156  and  _157
REMARK   59  A    between atoms: _156  and  _159
REMARK   60  A    between atoms: _159  and  _160
REMARK   61  A    between atoms: _165  and  _167
REMARK   62  A    between atoms: _167  and  _168
REMARK   63  A    between atoms: _167  and  _170
REMARK   64  A    between atoms: _170  and  _171
REMARK   65  A    between atoms: _171  and  _172
REMARK   66  A    between atoms: _172  and  _173
REMARK   67  A    between atoms: _173  and  _174
REMARK   68  A    between atoms: _178  and  _180
REMARK   69  A    between atoms: _180  and  _181
REMARK   70  A    between atoms: _180  and  _183
REMARK   71  A    between atoms: _186  and  _188
REMARK   72  A    between atoms: _188  and  _189
REMARK   73  A    between atoms: _188  and  _191
REMARK   74  A    between atoms: _191  and  _192
REMARK   75  A    between atoms: _195  and  _197
REMARK   76  A    between atoms: _197  and  _198
REMARK   77  A    between atoms: _201  and  _203
REMARK   78  A    between atoms: _203  and  _204
REMARK   79  A    between atoms: _203  and  _206
REMARK   80  A    between atoms: _206  and  _207
REMARK   81  A    between atoms: _212  and  _214
REMARK   82  A    between atoms: _214  and  _215
REMARK   83  A    between atoms: _218  and  _220
REMARK   84  A    between atoms: _220  and  _221
REMARK   85  A    between atoms: _220  and  _223
REMARK   86  A    between atoms: _226  and  _228
REMARK   87  A    between atoms: _228  and  _229
REMARK   88  A    between atoms: _228  and  _231
REMARK   89  A    between atoms: _231  and  _232
REMARK   90  A    between atoms: _237  and  _238
REMARK   91  A    between atoms: _240  and  _242
REMARK   92  A    between atoms: _242  and  _243
REMARK   93  A    between atoms: _242  and  _245
REMARK   94  A    between atoms: _245  and  _246
REMARK                            x       y       z     vdW  Elec       q    Type
REMARK                         _______ _______ _______ _____ _____    ______ ____
ROOT
ATOM      1  O   HOH     1       1.195  14.812 125.689  0.00  0.00    +0.000 OA
ENDROOT
TORSDOF 0
REMARK  Name = ../refined-set-2016/2vmc/2vmc_pocket.pdb
REMARK  94 active torsions:
REMARK  status: ('A' for Active; 'I' for Inactive)
REMARK    1  A    between atoms: _1  and  _3
REMARK    2  A    between atoms: _3  and  _4
REMARK    3  A    between atoms: _6  and  _8
REMARK    4  A    between atoms: _8  and  _9
REMARK    5  A    between atoms: _8  and  _11
REMARK    6  A    between atoms: _11  and  _12
REMARK    7  A    between atoms: _14  and  _16
REMARK    8  A    between atoms: _16  and  _17
REMARK    9  A    between atoms: _16  and  _19
REMARK   10  A    between atoms: _19  and  _20
REMARK   11  A    between atoms: _20  and  _21
REMARK   12  A    between atoms: _21  and  _22
REMARK   13  A    between atoms: _31  and  _33
REMARK   14  A    between atoms: _33  and  _34
REMARK   15  A    between atoms: _33  and  _36
REMARK   16  A    between atoms: _36  and  _37
REMARK   17  A    between atoms: _40  and  _42
REMARK   18  A    between atoms: _42  and  _43
REMARK   19  A    between atoms: _42  and  _45
REMARK   20  A    between atoms: _45  and  _46
REMARK   21  A    between atoms: _46  and  _47
REMARK   22  A    between atoms: _52  and  _54
REMARK   23  A    between atoms: _54  and  _55
REMARK   24  A    between atoms: _54  and  _57
REMARK   25  A    between atoms: _57  and  _58
REMARK   26  A    between atoms: _58  and  _59
REMARK   27  A    between atoms: _61  and  _63
REMARK   28  A    between atoms: _63  and  _64
REMARK   29  A    between atoms: _63  and  _66
REMARK   30  A    between atoms: _66  and  _67
REMARK   31  A    between atoms: _67  and  _68
REMARK   32  A    between atoms: _68  and  _69
REMARK   33  A    between atoms: _78  and  _80
REMARK   34  A    between atoms: _80  and  _81
REMARK   35  A    between atoms: _80  and  _83
REMARK   36  A    between atoms: _83  and  _84
REMARK   37  A    between atoms: _94  and  _96
REMARK   38  A    between atoms: _96  and  _97
REMARK   39  A    between atoms: _96  and  _99
REMARK   40  A    between atoms: _99  and  _100
REMARK   41  A    between atoms: _110  and  _112
REMARK   42  A    between atoms: _112  and  _113
REMARK   43  A    between atoms: _115  and  _117
REMARK   44  A    between atoms: _117  and  _118
REMARK   45  A    between atoms: _117  and  _120
REMARK   46  A    between atoms: _120  and  _121
REMARK   47  A    between atoms: _126  and  _128
REMARK   48  A    between atoms: _128  and  _129
REMARK   49  A    between atoms: _128  and  _131
REMARK   50  A    between atoms: _131  and  _132
REMARK   51  A    between atoms: _137  and  _139
REMARK   52  A    between atoms: _139  and  _140
REMARK   53  A    between atoms: _139  and  _142
REMARK   54  A    between atoms: _142  and  _143
REMARK   55  A    between atoms: _143  and  _144
REMARK   56  A    between atoms: _144  and  _145
REMARK   57  A    between atoms: _154  and  _156
REMARK   58  A    between atoms: _156  and  _157
REMARK   59  A    between atoms: _156  and  _159
REMARK   60  A    between atoms: _159  and  _160
REMARK   61  A    between atoms: _165  and  _167
REMARK   62  A    between atoms: _167  and  _168
REMARK   63  A    between atoms: _167  and  _170
REMARK   64  A    between atoms: _170  and  _171
REMARK   65  A    between atoms: _171  and  _172
REMARK   66  A    between atoms: _172  and  _173
REMARK   67  A    between atoms: _173  and  _174
REMARK   68  A    between atoms: _178  and  _180
REMARK   69  A    between atoms: _180  and  _181
REMARK   70  A    between atoms: _180  and  _183
REMARK   71  A    between atoms: _186  and  _188
REMARK   72  A    between atoms: _188  and  _189
REMARK   73  A    between atoms: _188  and  _191
REMARK   74  A    between atoms: _191  and  _192
REMARK   75  A    between atoms: _195  and  _197
REMARK   76  A    between atoms: _197  and  _198
REMARK   77  A    between atoms: _201  and  _203
REMARK   78  A    between atoms: _203  and  _204
REMARK   79  A    between atoms: _203  and  _206
REMARK   80  A    between atoms: _206  and  _207
REMARK   81  A    between atoms: _212  and  _214
REMARK   82  A    between atoms: _214  and  _215
REMARK   83  A    between atoms: _218  and  _220
REMARK   84  A    between atoms: _220  and  _221
REMARK   85  A    between atoms: _220  and  _223
REMARK   86  A    between atoms: _226  and  _228
REMARK   87  A    between atoms: _228  and  _229
REMARK   88  A    between atoms: _228  and  _231
REMARK   89  A    between atoms: _231  and  _232
REMARK   90  A    between atoms: _237  and  _238
REMARK   91  A    between atoms: _240  and  _242
REMARK   92  A    between atoms: _242  and  _243
REMARK   93  A    between atoms: _242  and  _245
REMARK   94  A    between atoms: _245  and  _246
REMARK                            x       y       z     vdW  Elec       q    Type
REMARK                         _______ _______ _______ _____ _____    ______ ____
ROOT
ATOM      1  O   HOH     1       3.729  17.609 122.865  0.00  0.00    +0.000 OA
ENDROOT
TORSDOF 0
REMARK  Name = ../refined-set-2016/2vmc/2vmc_pocket.pdb
REMARK  94 active torsions:
REMARK  status: ('A' for Active; 'I' for Inactive)
REMARK    1  A    between atoms: _1  and  _3
REMARK    2  A    between atoms: _3  and  _4
REMARK    3  A    between atoms: _6  and  _8
REMARK    4  A    between atoms: _8  and  _9
REMARK    5  A    between atoms: _8  and  _11
REMARK    6  A    between atoms: _11  and  _12
REMARK    7  A    between atoms: _14  and  _16
REMARK    8  A    between atoms: _16  and  _17
REMARK    9  A    between atoms: _16  and  _19
REMARK   10  A    between atoms: _19  and  _20
REMARK   11  A    between atoms: _20  and  _21
REMARK   12  A    between atoms: _21  and  _22
REMARK   13  A    between atoms: _31  and  _33
REMARK   14  A    between atoms: _33  and  _34
REMARK   15  A    between atoms: _33  and  _36
REMARK   16  A    between atoms: _36  and  _37
REMARK   17  A    between atoms: _40  and  _42
REMARK   18  A    between atoms: _42  and  _43
REMARK   19  A    between atoms: _42  and  _45
REMARK   20  A    between atoms: _45  and  _46
REMARK   21  A    between atoms: _46  and  _47
REMARK   22  A    between atoms: _52  and  _54
REMARK   23  A    between atoms: _54  and  _55
REMARK   24  A    between atoms: _54  and  _57
REMARK   25  A    between atoms: _57  and  _58
REMARK   26  A    between atoms: _58  and  _59
REMARK   27  A    between atoms: _61  and  _63
REMARK   28  A    between atoms: _63  and  _64
REMARK   29  A    between atoms: _63  and  _66
REMARK   30  A    between atoms: _66  and  _67
REMARK   31  A    between atoms: _67  and  _68
REMARK   32  A    between atoms: _68  and  _69
REMARK   33  A    between atoms: _78  and  _80
REMARK   34  A    between atoms: _80  and  _81
REMARK   35  A    between atoms: _80  and  _83
REMARK   36  A    between atoms: _83  and  _84
REMARK   37  A    between atoms: _94  and  _96
REMARK   38  A    between atoms: _96  and  _97
REMARK   39  A    between atoms: _96  and  _99
REMARK   40  A    between atoms: _99  and  _100
REMARK   41  A    between atoms: _110  and  _112
REMARK   42  A    between atoms: _112  and  _113
REMARK   43  A    between atoms: _115  and  _117
REMARK   44  A    between atoms: _117  and  _118
REMARK   45  A    between atoms: _117  and  _120
REMARK   46  A    between atoms: _120  and  _121
REMARK   47  A    between atoms: _126  and  _128
REMARK   48  A    between atoms: _128  and  _129
REMARK   49  A    between atoms: _128  and  _131
REMARK   50  A    between atoms: _131  and  _132
REMARK   51  A    between atoms: _137  and  _139
REMARK   52  A    between atoms: _139  and  _140
REMARK   53  A    between atoms: _139  and  _142
REMARK   54  A    between atoms: _142  and  _143
REMARK   55  A    between atoms: _143  and  _144
REMARK   56  A    between atoms: _144  and  _145
REMARK   57  A    between atoms: _154  and  _156
REMARK   58  A    between atoms: _156  and  _157
REMARK   59  A    between atoms: _156  and  _159
REMARK   60  A    between atoms: _159  and  _160
REMARK   61  A    between atoms: _165  and  _167
REMARK   62  A    between atoms: _167  and  _168
REMARK   63  A    between atoms: _167  and  _170
REMARK   64  A    between atoms: _170  and  _171
REMARK   65  A    between atoms: _171  and  _172
REMARK   66  A    between atoms: _172  and  _173
REMARK   67  A    between atoms: _173  and  _174
REMARK   68  A    between atoms: _178  and  _180
REMARK   69  A    between atoms: _180  and  _181
REMARK   70  A    between atoms: _180  and  _183
REMARK   71  A    between atoms: _186  and  _188
REMARK   72  A    between atoms: _188  and  _189
REMARK   73  A    between atoms: _188  and  _191
REMARK   74  A    between atoms: _191  and  _192
REMARK   75  A    between atoms: _195  and  _197
REMARK   76  A    between atoms: _197  and  _198
REMARK   77  A    between atoms: _201  and  _203
REMARK   78  A    between atoms: _203  and  _204
REMARK   79  A    between atoms: _203  and  _206
REMARK   80  A    between atoms: _206  and  _207
REMARK   81  A    between atoms: _212  and  _214
REMARK   82  A    between atoms: _214  and  _215
REMARK   83  A    between atoms: _218  and  _220
REMARK   84  A    between atoms: _220  and  _221
REMARK   85  A    between atoms: _220  and  _223
REMARK   86  A    between atoms: _226  and  _228
REMARK   87  A    between atoms: _228  and  _229
REMARK   88  A    between atoms: _228  and  _231
REMARK   89  A    between atoms: _231  and  _232
REMARK   90  A    between atoms: _237  and  _238
REMARK   91  A    between atoms: _240  and  _242
REMARK   92  A    between atoms: _242  and  _243
REMARK   93  A    between atoms: _242  and  _245
REMARK   94  A    between atoms: _245  and  _246
REMARK                            x       y       z     vdW  Elec       q    Type
REMARK                         _______ _______ _______ _____ _____    ______ ____
ROOT
ATOM      1  O   HOH     1       3.007  10.454 122.295  0.00  0.00    +0.000 OA
ENDROOT
TORSDOF 0
REMARK  Name = ../refined-set-2016/2vmc/2vmc_pocket.pdb
REMARK  94 active torsions:
REMARK  status: ('A' for Active; 'I' for Inactive)
REMARK    1  A    between atoms: _1  and  _3
REMARK    2  A    between atoms: _3  and  _4
REMARK    3  A    between atoms: _6  and  _8
REMARK    4  A    between atoms: _8  and  _9
REMARK    5  A    between atoms: _8  and  _11
REMARK    6  A    between atoms: _11  and  _12
REMARK    7  A    between atoms: _14  and  _16
REMARK    8  A    between atoms: _16  and  _17
REMARK    9  A    between atoms: _16  and  _19
REMARK   10  A    between atoms: _19  and  _20
REMARK   11  A    between atoms: _20  and  _21
REMARK   12  A    between atoms: _21  and  _22
REMARK   13  A    between atoms: _31  and  _33
REMARK   14  A    between atoms: _33  and  _34
REMARK   15  A    between atoms: _33  and  _36
REMARK   16  A    between atoms: _36  and  _37
REMARK   17  A    between atoms: _40  and  _42
REMARK   18  A    between atoms: _42  and  _43
REMARK   19  A    between atoms: _42  and  _45
REMARK   20  A    between atoms: _45  and  _46
REMARK   21  A    between atoms: _46  and  _47
REMARK   22  A    between atoms: _52  and  _54
REMARK   23  A    between atoms: _54  and  _55
REMARK   24  A    between atoms: _54  and  _57
REMARK   25  A    between atoms: _57  and  _58
REMARK   26  A    between atoms: _58  and  _59
REMARK   27  A    between atoms: _61  and  _63
REMARK   28  A    between atoms: _63  and  _64
REMARK   29  A    between atoms: _63  and  _66
REMARK   30  A    between atoms: _66  and  _67
REMARK   31  A    between atoms: _67  and  _68
REMARK   32  A    between atoms: _68  and  _69
REMARK   33  A    between atoms: _78  and  _80
REMARK   34  A    between atoms: _80  and  _81
REMARK   35  A    between atoms: _80  and  _83
REMARK   36  A    between atoms: _83  and  _84
REMARK   37  A    between atoms: _94  and  _96
REMARK   38  A    between atoms: _96  and  _97
REMARK   39  A    between atoms: _96  and  _99
REMARK   40  A    between atoms: _99  and  _100
REMARK   41  A    between atoms: _110  and  _112
REMARK   42  A    between atoms: _112  and  _113
REMARK   43  A    between atoms: _115  and  _117
REMARK   44  A    between atoms: _117  and  _118
REMARK   45  A    between atoms: _117  and  _120
REMARK   46  A    between atoms: _120  and  _121
REMARK   47  A    between atoms: _126  and  _128
REMARK   48  A    between atoms: _128  and  _129
REMARK   49  A    between atoms: _128  and  _131
REMARK   50  A    between atoms: _131  and  _132
REMARK   51  A    between atoms: _137  and  _139
REMARK   52  A    between atoms: _139  and  _140
REMARK   53  A    between atoms: _139  and  _142
REMARK   54  A    between atoms: _142  and  _143
REMARK   55  A    between atoms: _143  and  _144
REMARK   56  A    between atoms: _144  and  _145
REMARK   57  A    between atoms: _154  and  _156
REMARK   58  A    between atoms: _156  and  _157
REMARK   59  A    between atoms: _156  and  _159
REMARK   60  A    between atoms: _159  and  _160
REMARK   61  A    between atoms: _165  and  _167
REMARK   62  A    between atoms: _167  and  _168
REMARK   63  A    between atoms: _167  and  _170
REMARK   64  A    between atoms: _170  and  _171
REMARK   65  A    between atoms: _171  and  _172
REMARK   66  A    between atoms: _172  and  _173
REMARK   67  A    between atoms: _173  and  _174
REMARK   68  A    between atoms: _178  and  _180
REMARK   69  A    between atoms: _180  and  _181
REMARK   70  A    between atoms: _180  and  _183
REMARK   71  A    between atoms: _186  and  _188
REMARK   72  A    between atoms: _188  and  _189
REMARK   73  A    between atoms: _188  and  _191
REMARK   74  A    between atoms: _191  and  _192
REMARK   75  A    between atoms: _195  and  _197
REMARK   76  A    between atoms: _197  and  _198
REMARK   77  A    between atoms: _201  and  _203
REMARK   78  A    between atoms: _203  and  _204
REMARK   79  A    between atoms: _203  and  _206
REMARK   80  A    between atoms: _206  and  _207
REMARK   81  A    between atoms: _212  and  _214
REMARK   82  A    between atoms: _214  and  _215
REMARK   83  A    between atoms: _218  and  _220
REMARK   84  A    between atoms: _220  and  _221
REMARK   85  A    between atoms: _220  and  _223
REMARK   86  A    between atoms: _226  and  _228
REMARK   87  A    between atoms: _228  and  _229
REMARK   88  A    between atoms: _228  and  _231
REMARK   89  A    between atoms: _231  and  _232
REMARK   90  A    between atoms: _237  and  _238
REMARK   91  A    between atoms: _240  and  _242
REMARK   92  A    between atoms: _242  and  _243
REMARK   93  A    between atoms: _242  and  _245
REMARK   94  A    between atoms: _245  and  _246
REMARK                            x       y       z     vdW  Elec       q    Type
REMARK                         _______ _______ _______ _____ _____    ______ ____
ROOT
ATOM      1  O   HOH     1      11.303   8.667 111.672  0.00  0.00    +0.000 OA
ENDROOT
TORSDOF 0
REMARK  Name = ../refined-set-2016/2vmc/2vmc_pocket.pdb
REMARK  94 active torsions:
REMARK  status: ('A' for Active; 'I' for Inactive)
REMARK    1  A    between atoms: _1  and  _3
REMARK    2  A    between atoms: _3  and  _4
REMARK    3  A    between atoms: _6  and  _8
REMARK    4  A    between atoms: _8  and  _9
REMARK    5  A    between atoms: _8  and  _11
REMARK    6  A    between atoms: _11  and  _12
REMARK    7  A    between atoms: _14  and  _16
REMARK    8  A    between atoms: _16  and  _17
REMARK    9  A    between atoms: _16  and  _19
REMARK   10  A    between atoms: _19  and  _20
REMARK   11  A    between atoms: _20  and  _21
REMARK   12  A    between atoms: _21  and  _22
REMARK   13  A    between atoms: _31  and  _33
REMARK   14  A    between atoms: _33  and  _34
REMARK   15  A    between atoms: _33  and  _36
REMARK   16  A    between atoms: _36  and  _37
REMARK   17  A    between atoms: _40  and  _42
REMARK   18  A    between atoms: _42  and  _43
REMARK   19  A    between atoms: _42  and  _45
REMARK   20  A    between atoms: _45  and  _46
REMARK   21  A    between atoms: _46  and  _47
REMARK   22  A    between atoms: _52  and  _54
REMARK   23  A    between atoms: _54  and  _55
REMARK   24  A    between atoms: _54  and  _57
REMARK   25  A    between atoms: _57  and  _58
REMARK   26  A    between atoms: _58  and  _59
REMARK   27  A    between atoms: _61  and  _63
REMARK   28  A    between atoms: _63  and  _64
REMARK   29  A    between atoms: _63  and  _66
REMARK   30  A    between atoms: _66  and  _67
REMARK   31  A    between atoms: _67  and  _68
REMARK   32  A    between atoms: _68  and  _69
REMARK   33  A    between atoms: _78  and  _80
REMARK   34  A    between atoms: _80  and  _81
REMARK   35  A    between atoms: _80  and  _83
REMARK   36  A    between atoms: _83  and  _84
REMARK   37  A    between atoms: _94  and  _96
REMARK   38  A    between atoms: _96  and  _97
REMARK   39  A    between atoms: _96  and  _99
REMARK   40  A    between atoms: _99  and  _100
REMARK   41  A    between atoms: _110  and  _112
REMARK   42  A    between atoms: _112  and  _113
REMARK   43  A    between atoms: _115  and  _117
REMARK   44  A    between atoms: _117  and  _118
REMARK   45  A    between atoms: _117  and  _120
REMARK   46  A    between atoms: _120  and  _121
REMARK   47  A    between atoms: _126  and  _128
REMARK   48  A    between atoms: _128  and  _129
REMARK   49  A    between atoms: _128  and  _131
REMARK   50  A    between atoms: _131  and  _132
REMARK   51  A    between atoms: _137  and  _139
REMARK   52  A    between atoms: _139  and  _140
REMARK   53  A    between atoms: _139  and  _142
REMARK   54  A    between atoms: _142  and  _143
REMARK   55  A    between atoms: _143  and  _144
REMARK   56  A    between atoms: _144  and  _145
REMARK   57  A    between atoms: _154  and  _156
REMARK   58  A    between atoms: _156  and  _157
REMARK   59  A    between atoms: _156  and  _159
REMARK   60  A    between atoms: _159  and  _160
REMARK   61  A    between atoms: _165  and  _167
REMARK   62  A    between atoms: _167  and  _168
REMARK   63  A    between atoms: _167  and  _170
REMARK   64  A    between atoms: _170  and  _171
REMARK   65  A    between atoms: _171  and  _172
REMARK   66  A    between atoms: _172  and  _173
REMARK   67  A    between atoms: _173  and  _174
REMARK   68  A    between atoms: _178  and  _180
REMARK   69  A    between atoms: _180  and  _181
REMARK   70  A    between atoms: _180  and  _183
REMARK   71  A    between atoms: _186  and  _188
REMARK   72  A    between atoms: _188  and  _189
REMARK   73  A    between atoms: _188  and  _191
REMARK   74  A    between atoms: _191  and  _192
REMARK   75  A    between atoms: _195  and  _197
REMARK   76  A    between atoms: _197  and  _198
REMARK   77  A    between atoms: _201  and  _203
REMARK   78  A    between atoms: _203  and  _204
REMARK   79  A    between atoms: _203  and  _206
REMARK   80  A    between atoms: _206  and  _207
REMARK   81  A    between atoms: _212  and  _214
REMARK   82  A    between atoms: _214  and  _215
REMARK   83  A    between atoms: _218  and  _220
REMARK   84  A    between atoms: _220  and  _221
REMARK   85  A    between atoms: _220  and  _223
REMARK   86  A    between atoms: _226  and  _228
REMARK   87  A    between atoms: _228  and  _229
REMARK   88  A    between atoms: _228  and  _231
REMARK   89  A    between atoms: _231  and  _232
REMARK   90  A    between atoms: _237  and  _238
REMARK   91  A    between atoms: _240  and  _242
REMARK   92  A    between atoms: _242  and  _243
REMARK   93  A    between atoms: _242  and  _245
REMARK   94  A    between atoms: _245  and  _246
REMARK                            x       y       z     vdW  Elec       q    Type
REMARK                         _______ _______ _______ _____ _____    ______ ____
ROOT
ATOM      1  O   HOH     1       9.191  10.175 115.781  0.00  0.00    +0.000 OA
ENDROOT
TORSDOF 0
REMARK  Name = ../refined-set-2016/2vmc/2vmc_pocket.pdb
REMARK  94 active torsions:
REMARK  status: ('A' for Active; 'I' for Inactive)
REMARK    1  A    between atoms: _1  and  _3
REMARK    2  A    between atoms: _3  and  _4
REMARK    3  A    between atoms: _6  and  _8
REMARK    4  A    between atoms: _8  and  _9
REMARK    5  A    between atoms: _8  and  _11
REMARK    6  A    between atoms: _11  and  _12
REMARK    7  A    between atoms: _14  and  _16
REMARK    8  A    between atoms: _16  and  _17
REMARK    9  A    between atoms: _16  and  _19
REMARK   10  A    between atoms: _19  and  _20
REMARK   11  A    between atoms: _20  and  _21
REMARK   12  A    between atoms: _21  and  _22
REMARK   13  A    between atoms: _31  and  _33
REMARK   14  A    between atoms: _33  and  _34
REMARK   15  A    between atoms: _33  and  _36
REMARK   16  A    between atoms: _36  and  _37
REMARK   17  A    between atoms: _40  and  _42
REMARK   18  A    between atoms: _42  and  _43
REMARK   19  A    between atoms: _42  and  _45
REMARK   20  A    between atoms: _45  and  _46
REMARK   21  A    between atoms: _46  and  _47
REMARK   22  A    between atoms: _52  and  _54
REMARK   23  A    between atoms: _54  and  _55
REMARK   24  A    between atoms: _54  and  _57
REMARK   25  A    between atoms: _57  and  _58
REMARK   26  A    between atoms: _58  and  _59
REMARK   27  A    between atoms: _61  and  _63
REMARK   28  A    between atoms: _63  and  _64
REMARK   29  A    between atoms: _63  and  _66
REMARK   30  A    between atoms: _66  and  _67
REMARK   31  A    between atoms: _67  and  _68
REMARK   32  A    between atoms: _68  and  _69
REMARK   33  A    between atoms: _78  and  _80
REMARK   34  A    between atoms: _80  and  _81
REMARK   35  A    between atoms: _80  and  _83
REMARK   36  A    between atoms: _83  and  _84
REMARK   37  A    between atoms: _94  and  _96
REMARK   38  A    between atoms: _96  and  _97
REMARK   39  A    between atoms: _96  and  _99
REMARK   40  A    between atoms: _99  and  _100
REMARK   41  A    between atoms: _110  and  _112
REMARK   42  A    between atoms: _112  and  _113
REMARK   43  A    between atoms: _115  and  _117
REMARK   44  A    between atoms: _117  and  _118
REMARK   45  A    between atoms: _117  and  _120
REMARK   46  A    between atoms: _120  and  _121
REMARK   47  A    between atoms: _126  and  _128
REMARK   48  A    between atoms: _128  and  _129
REMARK   49  A    between atoms: _128  and  _131
REMARK   50  A    between atoms: _131  and  _132
REMARK   51  A    between atoms: _137  and  _139
REMARK   52  A    between atoms: _139  and  _140
REMARK   53  A    between atoms: _139  and  _142
REMARK   54  A    between atoms: _142  and  _143
REMARK   55  A    between atoms: _143  and  _144
REMARK   56  A    between atoms: _144  and  _145
REMARK   57  A    between atoms: _154  and  _156
REMARK   58  A    between atoms: _156  and  _157
REMARK   59  A    between atoms: _156  and  _159
REMARK   60  A    between atoms: _159  and  _160
REMARK   61  A    between atoms: _165  and  _167
REMARK   62  A    between atoms: _167  and  _168
REMARK   63  A    between atoms: _167  and  _170
REMARK   64  A    between atoms: _170  and  _171
REMARK   65  A    between atoms: _171  and  _172
REMARK   66  A    between atoms: _172  and  _173
REMARK   67  A    between atoms: _173  and  _174
REMARK   68  A    between atoms: _178  and  _180
REMARK   69  A    between atoms: _180  and  _181
REMARK   70  A    between atoms: _180  and  _183
REMARK   71  A    between atoms: _186  and  _188
REMARK   72  A    between atoms: _188  and  _189
REMARK   73  A    between atoms: _188  and  _191
REMARK   74  A    between atoms: _191  and  _192
REMARK   75  A    between atoms: _195  and  _197
REMARK   76  A    between atoms: _197  and  _198
REMARK   77  A    between atoms: _201  and  _203
REMARK   78  A    between atoms: _203  and  _204
REMARK   79  A    between atoms: _203  and  _206
REMARK   80  A    between atoms: _206  and  _207
REMARK   81  A    between atoms: _212  and  _214
REMARK   82  A    between atoms: _214  and  _215
REMARK   83  A    between atoms: _218  and  _220
REMARK   84  A    between atoms: _220  and  _221
REMARK   85  A    between atoms: _220  and  _223
REMARK   86  A    between atoms: _226  and  _228
REMARK   87  A    between atoms: _228  and  _229
REMARK   88  A    between atoms: _228  and  _231
REMARK   89  A    between atoms: _231  and  _232
REMARK   90  A    between atoms: _237  and  _238
REMARK   91  A    between atoms: _240  and  _242
REMARK   92  A    between atoms: _242  and  _243
REMARK   93  A    between atoms: _242  and  _245
REMARK   94  A    between atoms: _245  and  _246
REMARK                            x       y       z     vdW  Elec       q    Type
REMARK                         _______ _______ _______ _____ _____    ______ ____
ROOT
ATOM      1  O   HOH     1       6.224   7.460 127.279  0.00  0.00    +0.000 OA
ENDROOT
TORSDOF 0
REMARK  Name = ../refined-set-2016/2vmc/2vmc_pocket.pdb
REMARK  94 active torsions:
REMARK  status: ('A' for Active; 'I' for Inactive)
REMARK    1  A    between atoms: _1  and  _3
REMARK    2  A    between atoms: _3  and  _4
REMARK    3  A    between atoms: _6  and  _8
REMARK    4  A    between atoms: _8  and  _9
REMARK    5  A    between atoms: _8  and  _11
REMARK    6  A    between atoms: _11  and  _12
REMARK    7  A    between atoms: _14  and  _16
REMARK    8  A    between atoms: _16  and  _17
REMARK    9  A    between atoms: _16  and  _19
REMARK   10  A    between atoms: _19  and  _20
REMARK   11  A    between atoms: _20  and  _21
REMARK   12  A    between atoms: _21  and  _22
REMARK   13  A    between atoms: _31  and  _33
REMARK   14  A    between atoms: _33  and  _34
REMARK   15  A    between atoms: _33  and  _36
REMARK   16  A    between atoms: _36  and  _37
REMARK   17  A    between atoms: _40  and  _42
REMARK   18  A    between atoms: _42  and  _43
REMARK   19  A    between atoms: _42  and  _45
REMARK   20  A    between atoms: _45  and  _46
REMARK   21  A    between atoms: _46  and  _47
REMARK   22  A    between atoms: _52  and  _54
REMARK   23  A    between atoms: _54  and  _55
REMARK   24  A    between atoms: _54  and  _57
REMARK   25  A    between atoms: _57  and  _58
REMARK   26  A    between atoms: _58  and  _59
REMARK   27  A    between atoms: _61  and  _63
REMARK   28  A    between atoms: _63  and  _64
REMARK   29  A    between atoms: _63  and  _66
REMARK   30  A    between atoms: _66  and  _67
REMARK   31  A    between atoms: _67  and  _68
REMARK   32  A    between atoms: _68  and  _69
REMARK   33  A    between atoms: _78  and  _80
REMARK   34  A    between atoms: _80  and  _81
REMARK   35  A    between atoms: _80  and  _83
REMARK   36  A    between atoms: _83  and  _84
REMARK   37  A    between atoms: _94  and  _96
REMARK   38  A    between atoms: _96  and  _97
REMARK   39  A    between atoms: _96  and  _99
REMARK   40  A    between atoms: _99  and  _100
REMARK   41  A    between atoms: _110  and  _112
REMARK   42  A    between atoms: _112  and  _113
REMARK   43  A    between atoms: _115  and  _117
REMARK   44  A    between atoms: _117  and  _118
REMARK   45  A    between atoms: _117  and  _120
REMARK   46  A    between atoms: _120  and  _121
REMARK   47  A    between atoms: _126  and  _128
REMARK   48  A    between atoms: _128  and  _129
REMARK   49  A    between atoms: _128  and  _131
REMARK   50  A    between atoms: _131  and  _132
REMARK   51  A    between atoms: _137  and  _139
REMARK   52  A    between atoms: _139  and  _140
REMARK   53  A    between atoms: _139  and  _142
REMARK   54  A    between atoms: _142  and  _143
REMARK   55  A    between atoms: _143  and  _144
REMARK   56  A    between atoms: _144  and  _145
REMARK   57  A    between atoms: _154  and  _156
REMARK   58  A    between atoms: _156  and  _157
REMARK   59  A    between atoms: _156  and  _159
REMARK   60  A    between atoms: _159  and  _160
REMARK   61  A    between atoms: _165  and  _167
REMARK   62  A    between atoms: _167  and  _168
REMARK   63  A    between atoms: _167  and  _170
REMARK   64  A    between atoms: _170  and  _171
REMARK   65  A    between atoms: _171  and  _172
REMARK   66  A    between atoms: _172  and  _173
REMARK   67  A    between atoms: _173  and  _174
REMARK   68  A    between atoms: _178  and  _180
REMARK   69  A    between atoms: _180  and  _181
REMARK   70  A    between atoms: _180  and  _183
REMARK   71  A    between atoms: _186  and  _188
REMARK   72  A    between atoms: _188  and  _189
REMARK   73  A    between atoms: _188  and  _191
REMARK   74  A    between atoms: _191  and  _192
REMARK   75  A    between atoms: _195  and  _197
REMARK   76  A    between atoms: _197  and  _198
REMARK   77  A    between atoms: _201  and  _203
REMARK   78  A    between atoms: _203  and  _204
REMARK   79  A    between atoms: _203  and  _206
REMARK   80  A    between atoms: _206  and  _207
REMARK   81  A    between atoms: _212  and  _214
REMARK   82  A    between atoms: _214  and  _215
REMARK   83  A    between atoms: _218  and  _220
REMARK   84  A    between atoms: _220  and  _221
REMARK   85  A    between atoms: _220  and  _223
REMARK   86  A    between atoms: _226  and  _228
REMARK   87  A    between atoms: _228  and  _229
REMARK   88  A    between atoms: _228  and  _231
REMARK   89  A    between atoms: _231  and  _232
REMARK   90  A    between atoms: _237  and  _238
REMARK   91  A    between atoms: _240  and  _242
REMARK   92  A    between atoms: _242  and  _243
REMARK   93  A    between atoms: _242  and  _245
REMARK   94  A    between atoms: _245  and  _246
REMARK                            x       y       z     vdW  Elec       q    Type
REMARK                         _______ _______ _______ _____ _____    ______ ____
ROOT
ATOM      1  O   HOH     1      11.520  13.917 117.845  0.00  0.00    +0.000 OA
ENDROOT
TORSDOF 0
