REMARK  Name = ../refined-set-2016/3uw5/3uw5_pocket.pdb
REMARK  120 active torsions:
REMARK  status: ('A' for Active; 'I' for Inactive)
REMARK    1  A    between atoms: _1  and  _3
REMARK    2  A    between atoms: _3  and  _4
REMARK    3  A    between atoms: _3  and  _6
REMARK    4  A    between atoms: _9  and  _11
REMARK    5  A    between atoms: _11  and  _12
REMARK    6  A    between atoms: _11  and  _14
REMARK    7  A    between atoms: _14  and  _15
REMARK    8  A    between atoms: _18  and  _20
REMARK    9  A    between atoms: _20  and  _21
REMARK   10  A    between atoms: _20  and  _23
REMARK   11  A    between atoms: _23  and  _24
REMARK   12  A    between atoms: _30  and  _32
REMARK   13  A    between atoms: _32  and  _33
REMARK   14  A    between atoms: _32  and  _35
REMARK   15  A    between atoms: _35  and  _36
REMARK   16  A    between atoms: _42  and  _44
REMARK   17  A    between atoms: _44  and  _45
REMARK   18  A    between atoms: _44  and  _47
REMARK   19  A    between atoms: _47  and  _48
REMARK   20  A    between atoms: _53  and  _55
REMARK   21  A    between atoms: _55  and  _56
REMARK   22  A    between atoms: _55  and  _58
REMARK   23  A    between atoms: _58  and  _59
REMARK   24  A    between atoms: _62  and  _64
REMARK   25  A    between atoms: _64  and  _65
REMARK   26  A    between atoms: _67  and  _69
REMARK   27  A    between atoms: _69  and  _70
REMARK   28  A    between atoms: _69  and  _72
REMARK   29  A    between atoms: _72  and  _73
REMARK   30  A    between atoms: _76  and  _78
REMARK   31  A    between atoms: _78  and  _79
REMARK   32  A    between atoms: _78  and  _81
REMARK   33  A    between atoms: _81  and  _82
REMARK   34  A    between atoms: _82  and  _83
REMARK   35  A    between atoms: _83  and  _84
REMARK   36  A    between atoms: _84  and  _85
REMARK   37  A    between atoms: _89  and  _91
REMARK   38  A    between atoms: _91  and  _92
REMARK   39  A    between atoms: _91  and  _94
REMARK   40  A    between atoms: _97  and  _99
REMARK   41  A    between atoms: _99  and  _100
REMARK   42  A    between atoms: _99  and  _102
REMARK   43  A    between atoms: _102  and  _103
REMARK   44  A    between atoms: _103  and  _104
REMARK   45  A    between atoms: _104  and  _105
REMARK   46  A    between atoms: _114  and  _116
REMARK   47  A    between atoms: _116  and  _117
REMARK   48  A    between atoms: _116  and  _119
REMARK   49  A    between atoms: _121  and  _123
REMARK   50  A    between atoms: _123  and  _124
REMARK   51  A    between atoms: _123  and  _126
REMARK   52  A    between atoms: _126  and  _127
REMARK   53  A    between atoms: _132  and  _133
REMARK   54  A    between atoms: _135  and  _137
REMARK   55  A    between atoms: _137  and  _138
REMARK   56  A    between atoms: _140  and  _142
REMARK   57  A    between atoms: _142  and  _143
REMARK   58  A    between atoms: _145  and  _147
REMARK   59  A    between atoms: _147  and  _148
REMARK   60  A    between atoms: _147  and  _150
REMARK   61  A    between atoms: _150  and  _151
REMARK   62  A    between atoms: _154  and  _156
REMARK   63  A    between atoms: _156  and  _157
REMARK   64  A    between atoms: _156  and  _159
REMARK   65  A    between atoms: _159  and  _160
REMARK   66  A    between atoms: _160  and  _161
REMARK   67  A    between atoms: _166  and  _168
REMARK   68  A    between atoms: _168  and  _169
REMARK   69  A    between atoms: _168  and  _171
REMARK   70  A    between atoms: _171  and  _172
REMARK   71  A    between atoms: _174  and  _176
REMARK   72  A    between atoms: _176  and  _177
REMARK   73  A    between atoms: _176  and  _179
REMARK   74  A    between atoms: _179  and  _180
REMARK   75  A    between atoms: _190  and  _192
REMARK   76  A    between atoms: _192  and  _193
REMARK   77  A    between atoms: _192  and  _195
REMARK   78  A    between atoms: _195  and  _196
REMARK   79  A    between atoms: _196  and  _197
REMARK   80  A    between atoms: _197  and  _198
REMARK   81  A    between atoms: _198  and  _199
REMARK   82  A    between atoms: _203  and  _205
REMARK   83  A    between atoms: _205  and  _206
REMARK   84  A    between atoms: _205  and  _208
REMARK   85  A    between atoms: _208  and  _209
REMARK   86  A    between atoms: _209  and  _210
REMARK   87  A    between atoms: _210  and  _211
REMARK   88  A    between atoms: _220  and  _222
REMARK   89  A    between atoms: _222  and  _223
REMARK   90  A    between atoms: _222  and  _225
REMARK   91  A    between atoms: _225  and  _226
REMARK   92  A    between atoms: _229  and  _231
REMARK   93  A    between atoms: _231  and  _232
REMARK   94  A    between atoms: _231  and  _234
REMARK   95  A    between atoms: _234  and  _235
REMARK   96  A    between atoms: _239  and  _240
REMARK   97  A    between atoms: _245  and  _247
REMARK   98  A    between atoms: _247  and  _248
REMARK   99  A    between atoms: _247  and  _250
REMARK  100  A    between atoms: _250  and  _251
REMARK  101  A    between atoms: _251  and  _252
REMARK  102  A    between atoms: _255  and  _257
REMARK  103  A    between atoms: _257  and  _258
REMARK  104  A    between atoms: _257  and  _260
REMARK  105  A    between atoms: _260  and  _261
REMARK  106  A    between atoms: _266  and  _268
REMARK  107  A    between atoms: _268  and  _269
REMARK  108  A    between atoms: _268  and  _271
REMARK  109  A    between atoms: _271  and  _272
REMARK  110  A    between atoms: _272  and  _273
REMARK  111  A    between atoms: _273  and  _274
REMARK  112  A    between atoms: _274  and  _275
REMARK  113  A    between atoms: _279  and  _281
REMARK  114  A    between atoms: _281  and  _282
REMARK  115  A    between atoms: _281  and  _284
REMARK  116  A    between atoms: _284  and  _285
REMARK  117  A    between atoms: _295  and  _297
REMARK  118  A    between atoms: _297  and  _298
REMARK  119  A    between atoms: _297  and  _300
REMARK  120  A    between atoms: _300  and  _301
REMARK                            x       y       z     vdW  Elec       q    Type
REMARK                         _______ _______ _______ _____ _____    ______ ____
ROOT
ATOM      1  CA  VAL A   1      90.038  59.176  24.283  0.00  0.00    +0.133 C 
ENDROOT
BRANCH   1   2
ATOM      2  CB  VAL A   1      88.832  59.468  23.358  0.00  0.00    +0.023 C 
ATOM      3  CG2 VAL A   1      88.721  60.964  23.069  0.00  0.00    +0.002 C 
ATOM      4  CG1 VAL A   1      88.941  58.689  22.054  0.00  0.00    +0.002 C 
ENDBRANCH   1   2
BRANCH   1   5
ATOM      5  N   VAL A   1      90.227  57.741  24.516  0.00  0.00    -0.239 NA
ATOM      6  H   VAL A   1      89.653  57.278  25.249  0.00  0.00    +0.142 HD
ENDBRANCH   1   5
BRANCH   1   7
ATOM      7  C   VAL A   1      89.833  59.834  25.652  0.00  0.00    +0.224 C 
ATOM      8  O   VAL A   1      88.747  59.734  26.241  0.00  0.00    -0.287 OA
ENDBRANCH   1   7
TORSDOF 3
REMARK  Name = ../refined-set-2016/3uw5/3uw5_pocket.pdb
REMARK  120 active torsions:
REMARK  status: ('A' for Active; 'I' for Inactive)
REMARK    1  A    between atoms: _1  and  _3
REMARK    2  A    between atoms: _3  and  _4
REMARK    3  A    between atoms: _3  and  _6
REMARK    4  A    between atoms: _9  and  _11
REMARK    5  A    between atoms: _11  and  _12
REMARK    6  A    between atoms: _11  and  _14
REMARK    7  A    between atoms: _14  and  _15
REMARK    8  A    between atoms: _18  and  _20
REMARK    9  A    between atoms: _20  and  _21
REMARK   10  A    between atoms: _20  and  _23
REMARK   11  A    between atoms: _23  and  _24
REMARK   12  A    between atoms: _30  and  _32
REMARK   13  A    between atoms: _32  and  _33
REMARK   14  A    between atoms: _32  and  _35
REMARK   15  A    between atoms: _35  and  _36
REMARK   16  A    between atoms: _42  and  _44
REMARK   17  A    between atoms: _44  and  _45
REMARK   18  A    between atoms: _44  and  _47
REMARK   19  A    between atoms: _47  and  _48
REMARK   20  A    between atoms: _53  and  _55
REMARK   21  A    between atoms: _55  and  _56
REMARK   22  A    between atoms: _55  and  _58
REMARK   23  A    between atoms: _58  and  _59
REMARK   24  A    between atoms: _62  and  _64
REMARK   25  A    between atoms: _64  and  _65
REMARK   26  A    between atoms: _67  and  _69
REMARK   27  A    between atoms: _69  and  _70
REMARK   28  A    between atoms: _69  and  _72
REMARK   29  A    between atoms: _72  and  _73
REMARK   30  A    between atoms: _76  and  _78
REMARK   31  A    between atoms: _78  and  _79
REMARK   32  A    between atoms: _78  and  _81
REMARK   33  A    between atoms: _81  and  _82
REMARK   34  A    between atoms: _82  and  _83
REMARK   35  A    between atoms: _83  and  _84
REMARK   36  A    between atoms: _84  and  _85
REMARK   37  A    between atoms: _89  and  _91
REMARK   38  A    between atoms: _91  and  _92
REMARK   39  A    between atoms: _91  and  _94
REMARK   40  A    between atoms: _97  and  _99
REMARK   41  A    between atoms: _99  and  _100
REMARK   42  A    between atoms: _99  and  _102
REMARK   43  A    between atoms: _102  and  _103
REMARK   44  A    between atoms: _103  and  _104
REMARK   45  A    between atoms: _104  and  _105
REMARK   46  A    between atoms: _114  and  _116
REMARK   47  A    between atoms: _116  and  _117
REMARK   48  A    between atoms: _116  and  _119
REMARK   49  A    between atoms: _121  and  _123
REMARK   50  A    between atoms: _123  and  _124
REMARK   51  A    between atoms: _123  and  _126
REMARK   52  A    between atoms: _126  and  _127
REMARK   53  A    between atoms: _132  and  _133
REMARK   54  A    between atoms: _135  and  _137
REMARK   55  A    between atoms: _137  and  _138
REMARK   56  A    between atoms: _140  and  _142
REMARK   57  A    between atoms: _142  and  _143
REMARK   58  A    between atoms: _145  and  _147
REMARK   59  A    between atoms: _147  and  _148
REMARK   60  A    between atoms: _147  and  _150
REMARK   61  A    between atoms: _150  and  _151
REMARK   62  A    between atoms: _154  and  _156
REMARK   63  A    between atoms: _156  and  _157
REMARK   64  A    between atoms: _156  and  _159
REMARK   65  A    between atoms: _159  and  _160
REMARK   66  A    between atoms: _160  and  _161
REMARK   67  A    between atoms: _166  and  _168
REMARK   68  A    between atoms: _168  and  _169
REMARK   69  A    between atoms: _168  and  _171
REMARK   70  A    between atoms: _171  and  _172
REMARK   71  A    between atoms: _174  and  _176
REMARK   72  A    between atoms: _176  and  _177
REMARK   73  A    between atoms: _176  and  _179
REMARK   74  A    between atoms: _179  and  _180
REMARK   75  A    between atoms: _190  and  _192
REMARK   76  A    between atoms: _192  and  _193
REMARK   77  A    between atoms: _192  and  _195
REMARK   78  A    between atoms: _195  and  _196
REMARK   79  A    between atoms: _196  and  _197
REMARK   80  A    between atoms: _197  and  _198
REMARK   81  A    between atoms: _198  and  _199
REMARK   82  A    between atoms: _203  and  _205
REMARK   83  A    between atoms: _205  and  _206
REMARK   84  A    between atoms: _205  and  _208
REMARK   85  A    between atoms: _208  and  _209
REMARK   86  A    between atoms: _209  and  _210
REMARK   87  A    between atoms: _210  and  _211
REMARK   88  A    between atoms: _220  and  _222
REMARK   89  A    between atoms: _222  and  _223
REMARK   90  A    between atoms: _222  and  _225
REMARK   91  A    between atoms: _225  and  _226
REMARK   92  A    between atoms: _229  and  _231
REMARK   93  A    between atoms: _231  and  _232
REMARK   94  A    between atoms: _231  and  _234
REMARK   95  A    between atoms: _234  and  _235
REMARK   96  A    between atoms: _239  and  _240
REMARK   97  A    between atoms: _245  and  _247
REMARK   98  A    between atoms: _247  and  _248
REMARK   99  A    between atoms: _247  and  _250
REMARK  100  A    between atoms: _250  and  _251
REMARK  101  A    between atoms: _251  and  _252
REMARK  102  A    between atoms: _255  and  _257
REMARK  103  A    between atoms: _257  and  _258
REMARK  104  A    between atoms: _257  and  _260
REMARK  105  A    between atoms: _260  and  _261
REMARK  106  A    between atoms: _266  and  _268
REMARK  107  A    between atoms: _268  and  _269
REMARK  108  A    between atoms: _268  and  _271
REMARK  109  A    between atoms: _271  and  _272
REMARK  110  A    between atoms: _272  and  _273
REMARK  111  A    between atoms: _273  and  _274
REMARK  112  A    between atoms: _274  and  _275
REMARK  113  A    between atoms: _279  and  _281
REMARK  114  A    between atoms: _281  and  _282
REMARK  115  A    between atoms: _281  and  _284
REMARK  116  A    between atoms: _284  and  _285
REMARK  117  A    between atoms: _295  and  _297
REMARK  118  A    between atoms: _297  and  _298
REMARK  119  A    between atoms: _297  and  _300
REMARK  120  A    between atoms: _300  and  _301
REMARK                            x       y       z     vdW  Elec       q    Type
REMARK                         _______ _______ _______ _____ _____    ______ ____
ROOT
ATOM      1  CA  LEU A   1      87.488  66.107  25.547  0.00  0.00    +0.133 C 
ENDROOT
BRANCH   1   2
ATOM      2  N   LEU A   1      88.840  65.809  26.023  0.00  0.00    -0.239 NA
ATOM      3  H   LEU A   1      89.029  64.900  26.491  0.00  0.00    +0.142 HD
ENDBRANCH   1   2
BRANCH   1   4
ATOM      4  C   LEU A   1      86.932  67.381  26.195  0.00  0.00    +0.224 C 
ATOM      5  O   LEU A   1      86.463  68.285  25.496  0.00  0.00    -0.287 OA
ENDBRANCH   1   4
BRANCH   1   6
ATOM      6  CB  LEU A   1      86.553  64.922  25.802  0.00  0.00    +0.025 C 
BRANCH   6   7
ATOM      7  CG  LEU A   1      86.794  63.715  24.890  0.00  0.00    +0.002 C 
ATOM      8  CD2 LEU A   1      86.307  62.425  25.548  0.00  0.00    +0.000 C 
ATOM      9  CD1 LEU A   1      86.149  63.918  23.521  0.00  0.00    +0.000 C 
ENDBRANCH   6   7
ENDBRANCH   1   6
TORSDOF 4
REMARK  Name = ../refined-set-2016/3uw5/3uw5_pocket.pdb
REMARK  120 active torsions:
REMARK  status: ('A' for Active; 'I' for Inactive)
REMARK    1  A    between atoms: _1  and  _3
REMARK    2  A    between atoms: _3  and  _4
REMARK    3  A    between atoms: _3  and  _6
REMARK    4  A    between atoms: _9  and  _11
REMARK    5  A    between atoms: _11  and  _12
REMARK    6  A    between atoms: _11  and  _14
REMARK    7  A    between atoms: _14  and  _15
REMARK    8  A    between atoms: _18  and  _20
REMARK    9  A    between atoms: _20  and  _21
REMARK   10  A    between atoms: _20  and  _23
REMARK   11  A    between atoms: _23  and  _24
REMARK   12  A    between atoms: _30  and  _32
REMARK   13  A    between atoms: _32  and  _33
REMARK   14  A    between atoms: _32  and  _35
REMARK   15  A    between atoms: _35  and  _36
REMARK   16  A    between atoms: _42  and  _44
REMARK   17  A    between atoms: _44  and  _45
REMARK   18  A    between atoms: _44  and  _47
REMARK   19  A    between atoms: _47  and  _48
REMARK   20  A    between atoms: _53  and  _55
REMARK   21  A    between atoms: _55  and  _56
REMARK   22  A    between atoms: _55  and  _58
REMARK   23  A    between atoms: _58  and  _59
REMARK   24  A    between atoms: _62  and  _64
REMARK   25  A    between atoms: _64  and  _65
REMARK   26  A    between atoms: _67  and  _69
REMARK   27  A    between atoms: _69  and  _70
REMARK   28  A    between atoms: _69  and  _72
REMARK   29  A    between atoms: _72  and  _73
REMARK   30  A    between atoms: _76  and  _78
REMARK   31  A    between atoms: _78  and  _79
REMARK   32  A    between atoms: _78  and  _81
REMARK   33  A    between atoms: _81  and  _82
REMARK   34  A    between atoms: _82  and  _83
REMARK   35  A    between atoms: _83  and  _84
REMARK   36  A    between atoms: _84  and  _85
REMARK   37  A    between atoms: _89  and  _91
REMARK   38  A    between atoms: _91  and  _92
REMARK   39  A    between atoms: _91  and  _94
REMARK   40  A    between atoms: _97  and  _99
REMARK   41  A    between atoms: _99  and  _100
REMARK   42  A    between atoms: _99  and  _102
REMARK   43  A    between atoms: _102  and  _103
REMARK   44  A    between atoms: _103  and  _104
REMARK   45  A    between atoms: _104  and  _105
REMARK   46  A    between atoms: _114  and  _116
REMARK   47  A    between atoms: _116  and  _117
REMARK   48  A    between atoms: _116  and  _119
REMARK   49  A    between atoms: _121  and  _123
REMARK   50  A    between atoms: _123  and  _124
REMARK   51  A    between atoms: _123  and  _126
REMARK   52  A    between atoms: _126  and  _127
REMARK   53  A    between atoms: _132  and  _133
REMARK   54  A    between atoms: _135  and  _137
REMARK   55  A    between atoms: _137  and  _138
REMARK   56  A    between atoms: _140  and  _142
REMARK   57  A    between atoms: _142  and  _143
REMARK   58  A    between atoms: _145  and  _147
REMARK   59  A    between atoms: _147  and  _148
REMARK   60  A    between atoms: _147  and  _150
REMARK   61  A    between atoms: _150  and  _151
REMARK   62  A    between atoms: _154  and  _156
REMARK   63  A    between atoms: _156  and  _157
REMARK   64  A    between atoms: _156  and  _159
REMARK   65  A    between atoms: _159  and  _160
REMARK   66  A    between atoms: _160  and  _161
REMARK   67  A    between atoms: _166  and  _168
REMARK   68  A    between atoms: _168  and  _169
REMARK   69  A    between atoms: _168  and  _171
REMARK   70  A    between atoms: _171  and  _172
REMARK   71  A    between atoms: _174  and  _176
REMARK   72  A    between atoms: _176  and  _177
REMARK   73  A    between atoms: _176  and  _179
REMARK   74  A    between atoms: _179  and  _180
REMARK   75  A    between atoms: _190  and  _192
REMARK   76  A    between atoms: _192  and  _193
REMARK   77  A    between atoms: _192  and  _195
REMARK   78  A    between atoms: _195  and  _196
REMARK   79  A    between atoms: _196  and  _197
REMARK   80  A    between atoms: _197  and  _198
REMARK   81  A    between atoms: _198  and  _199
REMARK   82  A    between atoms: _203  and  _205
REMARK   83  A    between atoms: _205  and  _206
REMARK   84  A    between atoms: _205  and  _208
REMARK   85  A    between atoms: _208  and  _209
REMARK   86  A    between atoms: _209  and  _210
REMARK   87  A    between atoms: _210  and  _211
REMARK   88  A    between atoms: _220  and  _222
REMARK   89  A    between atoms: _222  and  _223
REMARK   90  A    between atoms: _222  and  _225
REMARK   91  A    between atoms: _225  and  _226
REMARK   92  A    between atoms: _229  and  _231
REMARK   93  A    between atoms: _231  and  _232
REMARK   94  A    between atoms: _231  and  _234
REMARK   95  A    between atoms: _234  and  _235
REMARK   96  A    between atoms: _239  and  _240
REMARK   97  A    between atoms: _245  and  _247
REMARK   98  A    between atoms: _247  and  _248
REMARK   99  A    between atoms: _247  and  _250
REMARK  100  A    between atoms: _250  and  _251
REMARK  101  A    between atoms: _251  and  _252
REMARK  102  A    between atoms: _255  and  _257
REMARK  103  A    between atoms: _257  and  _258
REMARK  104  A    between atoms: _257  and  _260
REMARK  105  A    between atoms: _260  and  _261
REMARK  106  A    between atoms: _266  and  _268
REMARK  107  A    between atoms: _268  and  _269
REMARK  108  A    between atoms: _268  and  _271
REMARK  109  A    between atoms: _271  and  _272
REMARK  110  A    between atoms: _272  and  _273
REMARK  111  A    between atoms: _273  and  _274
REMARK  112  A    between atoms: _274  and  _275
REMARK  113  A    between atoms: _279  and  _281
REMARK  114  A    between atoms: _281  and  _282
REMARK  115  A    between atoms: _281  and  _284
REMARK  116  A    between atoms: _284  and  _285
REMARK  117  A    between atoms: _295  and  _297
REMARK  118  A    between atoms: _297  and  _298
REMARK  119  A    between atoms: _297  and  _300
REMARK  120  A    between atoms: _300  and  _301
REMARK                            x       y       z     vdW  Elec       q    Type
REMARK                         _______ _______ _______ _____ _____    ______ ____
ROOT
ATOM      1  C   PHE A   2      79.923  66.082  26.916  0.00  0.00    +0.241 C 
ATOM      2  N   HIS A   3      79.786  65.135  27.838  0.00  0.00    -0.297 N 
ATOM      3  H   HIS A   3      80.077  65.348  28.813  0.00  0.00    +0.150 HD
ATOM      4  O   PHE A   2      79.536  65.953  25.751  0.00  0.00    -0.273 OA
ENDROOT
BRANCH   1   5
ATOM      5  CA  PHE A   2      80.587  67.372  27.392  0.00  0.00    +0.153 C 
BRANCH   5   8
ATOM      6  C   PHE A   1      82.472  68.349  26.174  0.00  0.00    +0.239 C 
ATOM      7  O   PHE A   1      83.246  68.266  27.127  0.00  0.00    -0.274 OA
ATOM      8  N   PHE A   2      81.175  68.065  26.249  0.00  0.00    -0.297 N 
ATOM      9  H   PHE A   2      80.555  68.347  25.463  0.00  0.00    +0.150 HD
BRANCH   6  10
ATOM     10  CA  PHE A   1      82.961  68.807  24.811  0.00  0.00    +0.149 C 
BRANCH  10  11
ATOM     11  N   PHE A   1      83.955  69.875  24.897  0.00  0.00    -0.238 NA
ATOM     12  H   PHE A   1      84.959  69.625  25.002  0.00  0.00    +0.142 HD
ENDBRANCH  10  11
BRANCH  10  13
ATOM     13  CB  PHE A   1      83.521  67.606  24.049  0.00  0.00    +0.053 C 
BRANCH  13  14
ATOM     14  CG  PHE A   1      83.873  67.907  22.621  0.00  0.00    -0.020 A 
ATOM     15  CD2 PHE A   1      85.188  67.856  22.188  0.00  0.00    -0.004 A 
ATOM     16  CE2 PHE A   1      85.508  68.130  20.871  0.00  0.00    -0.000 A 
ATOM     17  CZ  PHE A   1      84.516  68.471  19.969  0.00  0.00    -0.000 A 
ATOM     18  CE1 PHE A   1      83.200  68.529  20.389  0.00  0.00    -0.000 A 
ATOM     19  CD1 PHE A   1      82.885  68.243  21.704  0.00  0.00    -0.004 A 
ENDBRANCH  13  14
ENDBRANCH  10  13
ENDBRANCH   6  10
ENDBRANCH   5   8
BRANCH   5  20
ATOM     20  CB  PHE A   2      79.586  68.269  28.140  0.00  0.00    +0.055 C 
BRANCH  20  21
ATOM     21  CG  PHE A   2      78.396  68.684  27.318  0.00  0.00    -0.020 A 
ATOM     22  CD2 PHE A   2      77.254  67.892  27.268  0.00  0.00    -0.004 A 
ATOM     23  CE2 PHE A   2      76.159  68.275  26.512  0.00  0.00    -0.000 A 
ATOM     24  CZ  PHE A   2      76.188  69.457  25.799  0.00  0.00    -0.000 A 
ATOM     25  CE1 PHE A   2      77.316  70.257  25.841  0.00  0.00    -0.000 A 
ATOM     26  CD1 PHE A   2      78.411  69.871  26.602  0.00  0.00    -0.004 A 
ENDBRANCH  20  21
ENDBRANCH   5  20
ENDBRANCH   1   5
BRANCH   2  27
ATOM     27  CA  HIS A   3      79.249  63.814  27.549  0.00  0.00    +0.155 C 
BRANCH  27  28
ATOM     28  C   HIS A   3      77.746  63.864  27.504  0.00  0.00    +0.241 C 
ATOM     29  O   HIS A   3      77.123  64.359  28.441  0.00  0.00    -0.273 OA
ATOM     30  N   THR A   4      77.161  63.374  26.410  0.00  0.00    -0.295 N 
ATOM     31  H   THR A   4      77.764  62.987  25.656  0.00  0.00    +0.150 HD
BRANCH  30  32
ATOM     32  CA  THR A   4      75.704  63.356  26.220  0.00  0.00    +0.176 C 
BRANCH  32  33
ATOM     33  C   THR A   4      75.224  61.915  26.167  0.00  0.00    +0.243 C 
ATOM     34  N   GLY A   5      74.648  61.437  27.268  0.00  0.00    -0.296 N 
ATOM     35  H   GLY A   5      74.523  62.067  28.086  0.00  0.00    +0.150 HD
ATOM     36  O   THR A   4      75.380  61.247  25.145  0.00  0.00    -0.273 OA
BRANCH  34  37
ATOM     37  CA  GLY A   5      74.184  60.047  27.361  0.00  0.00    +0.163 C 
BRANCH  37  38
ATOM     38  C   GLY A   5      75.221  59.161  28.026  0.00  0.00    +0.229 C 
ATOM     39  O   GLY A   5      76.118  59.660  28.703  0.00  0.00    -0.286 OA
ENDBRANCH  37  38
ENDBRANCH  34  37
ENDBRANCH  32  33
BRANCH  32  40
ATOM     40  CB  THR A   4      75.283  64.069  24.915  0.00  0.00    +0.137 C 
ATOM     41  CG2 THR A   4      75.835  65.475  24.870  0.00  0.00    +0.034 C 
BRANCH  40  42
ATOM     42  OG1 THR A   4      75.761  63.346  23.771  0.00  0.00    -0.382 OA
ATOM     43  HG1 THR A   4      75.380  62.432  23.777  0.00  0.00    +0.210 HD
ENDBRANCH  40  42
ENDBRANCH  32  40
ENDBRANCH  30  32
ENDBRANCH  27  28
BRANCH  27  44
ATOM     44  CB  HIS A   3      79.716  62.863  28.641  0.00  0.00    +0.076 C 
BRANCH  44  45
ATOM     45  CG  HIS A   3      79.443  61.407  28.366  0.00  0.00    +0.082 A 
ATOM     46  ND1 HIS A   3      79.361  60.491  29.356  0.00  0.00    -0.227 NA
ATOM     47  CE1 HIS A   3      79.135  59.280  28.819  0.00  0.00    +0.199 A 
ATOM     48  NE2 HIS A   3      79.048  59.422  27.492  0.00  0.00    -0.221 NA
ATOM     49  CD2 HIS A   3      79.244  60.720  27.179  0.00  0.00    +0.115 A 
ENDBRANCH  44  45
ENDBRANCH  27  44
ENDBRANCH   2  27
TORSDOF 18
REMARK  Name = ../refined-set-2016/3uw5/3uw5_pocket.pdb
REMARK  120 active torsions:
REMARK  status: ('A' for Active; 'I' for Inactive)
REMARK    1  A    between atoms: _1  and  _3
REMARK    2  A    between atoms: _3  and  _4
REMARK    3  A    between atoms: _3  and  _6
REMARK    4  A    between atoms: _9  and  _11
REMARK    5  A    between atoms: _11  and  _12
REMARK    6  A    between atoms: _11  and  _14
REMARK    7  A    between atoms: _14  and  _15
REMARK    8  A    between atoms: _18  and  _20
REMARK    9  A    between atoms: _20  and  _21
REMARK   10  A    between atoms: _20  and  _23
REMARK   11  A    between atoms: _23  and  _24
REMARK   12  A    between atoms: _30  and  _32
REMARK   13  A    between atoms: _32  and  _33
REMARK   14  A    between atoms: _32  and  _35
REMARK   15  A    between atoms: _35  and  _36
REMARK   16  A    between atoms: _42  and  _44
REMARK   17  A    between atoms: _44  and  _45
REMARK   18  A    between atoms: _44  and  _47
REMARK   19  A    between atoms: _47  and  _48
REMARK   20  A    between atoms: _53  and  _55
REMARK   21  A    between atoms: _55  and  _56
REMARK   22  A    between atoms: _55  and  _58
REMARK   23  A    between atoms: _58  and  _59
REMARK   24  A    between atoms: _62  and  _64
REMARK   25  A    between atoms: _64  and  _65
REMARK   26  A    between atoms: _67  and  _69
REMARK   27  A    between atoms: _69  and  _70
REMARK   28  A    between atoms: _69  and  _72
REMARK   29  A    between atoms: _72  and  _73
REMARK   30  A    between atoms: _76  and  _78
REMARK   31  A    between atoms: _78  and  _79
REMARK   32  A    between atoms: _78  and  _81
REMARK   33  A    between atoms: _81  and  _82
REMARK   34  A    between atoms: _82  and  _83
REMARK   35  A    between atoms: _83  and  _84
REMARK   36  A    between atoms: _84  and  _85
REMARK   37  A    between atoms: _89  and  _91
REMARK   38  A    between atoms: _91  and  _92
REMARK   39  A    between atoms: _91  and  _94
REMARK   40  A    between atoms: _97  and  _99
REMARK   41  A    between atoms: _99  and  _100
REMARK   42  A    between atoms: _99  and  _102
REMARK   43  A    between atoms: _102  and  _103
REMARK   44  A    between atoms: _103  and  _104
REMARK   45  A    between atoms: _104  and  _105
REMARK   46  A    between atoms: _114  and  _116
REMARK   47  A    between atoms: _116  and  _117
REMARK   48  A    between atoms: _116  and  _119
REMARK   49  A    between atoms: _121  and  _123
REMARK   50  A    between atoms: _123  and  _124
REMARK   51  A    between atoms: _123  and  _126
REMARK   52  A    between atoms: _126  and  _127
REMARK   53  A    between atoms: _132  and  _133
REMARK   54  A    between atoms: _135  and  _137
REMARK   55  A    between atoms: _137  and  _138
REMARK   56  A    between atoms: _140  and  _142
REMARK   57  A    between atoms: _142  and  _143
REMARK   58  A    between atoms: _145  and  _147
REMARK   59  A    between atoms: _147  and  _148
REMARK   60  A    between atoms: _147  and  _150
REMARK   61  A    between atoms: _150  and  _151
REMARK   62  A    between atoms: _154  and  _156
REMARK   63  A    between atoms: _156  and  _157
REMARK   64  A    between atoms: _156  and  _159
REMARK   65  A    between atoms: _159  and  _160
REMARK   66  A    between atoms: _160  and  _161
REMARK   67  A    between atoms: _166  and  _168
REMARK   68  A    between atoms: _168  and  _169
REMARK   69  A    between atoms: _168  and  _171
REMARK   70  A    between atoms: _171  and  _172
REMARK   71  A    between atoms: _174  and  _176
REMARK   72  A    between atoms: _176  and  _177
REMARK   73  A    between atoms: _176  and  _179
REMARK   74  A    between atoms: _179  and  _180
REMARK   75  A    between atoms: _190  and  _192
REMARK   76  A    between atoms: _192  and  _193
REMARK   77  A    between atoms: _192  and  _195
REMARK   78  A    between atoms: _195  and  _196
REMARK   79  A    between atoms: _196  and  _197
REMARK   80  A    between atoms: _197  and  _198
REMARK   81  A    between atoms: _198  and  _199
REMARK   82  A    between atoms: _203  and  _205
REMARK   83  A    between atoms: _205  and  _206
REMARK   84  A    between atoms: _205  and  _208
REMARK   85  A    between atoms: _208  and  _209
REMARK   86  A    between atoms: _209  and  _210
REMARK   87  A    between atoms: _210  and  _211
REMARK   88  A    between atoms: _220  and  _222
REMARK   89  A    between atoms: _222  and  _223
REMARK   90  A    between atoms: _222  and  _225
REMARK   91  A    between atoms: _225  and  _226
REMARK   92  A    between atoms: _229  and  _231
REMARK   93  A    between atoms: _231  and  _232
REMARK   94  A    between atoms: _231  and  _234
REMARK   95  A    between atoms: _234  and  _235
REMARK   96  A    between atoms: _239  and  _240
REMARK   97  A    between atoms: _245  and  _247
REMARK   98  A    between atoms: _247  and  _248
REMARK   99  A    between atoms: _247  and  _250
REMARK  100  A    between atoms: _250  and  _251
REMARK  101  A    between atoms: _251  and  _252
REMARK  102  A    between atoms: _255  and  _257
REMARK  103  A    between atoms: _257  and  _258
REMARK  104  A    between atoms: _257  and  _260
REMARK  105  A    between atoms: _260  and  _261
REMARK  106  A    between atoms: _266  and  _268
REMARK  107  A    between atoms: _268  and  _269
REMARK  108  A    between atoms: _268  and  _271
REMARK  109  A    between atoms: _271  and  _272
REMARK  110  A    between atoms: _272  and  _273
REMARK  111  A    between atoms: _273  and  _274
REMARK  112  A    between atoms: _274  and  _275
REMARK  113  A    between atoms: _279  and  _281
REMARK  114  A    between atoms: _281  and  _282
REMARK  115  A    between atoms: _281  and  _284
REMARK  116  A    between atoms: _284  and  _285
REMARK  117  A    between atoms: _295  and  _297
REMARK  118  A    between atoms: _297  and  _298
REMARK  119  A    between atoms: _297  and  _300
REMARK  120  A    between atoms: _300  and  _301
REMARK                            x       y       z     vdW  Elec       q    Type
REMARK                         _______ _______ _______ _____ _____    ______ ____
ROOT
ATOM      1  CA  VAL A   3      79.602  64.340  23.083  0.00  0.00    +0.149 C 
ENDROOT
BRANCH   1   4
ATOM      2  C   LYS A   2      78.807  62.025  23.057  0.00  0.00    +0.241 C 
ATOM      3  O   LYS A   2      78.688  61.990  24.280  0.00  0.00    -0.273 OA
ATOM      4  N   VAL A   3      79.305  63.075  22.409  0.00  0.00    -0.297 N 
ATOM      5  H   VAL A   3      79.490  62.994  21.389  0.00  0.00    +0.150 HD
BRANCH   2   6
ATOM      6  CA  LYS A   2      78.388  60.833  22.206  0.00  0.00    +0.149 C 
BRANCH   6   8
ATOM      7  C   ASP A   1      80.054  59.113  22.621  0.00  0.00    +0.239 C 
ATOM      8  N   LYS A   2      78.827  59.585  22.825  0.00  0.00    -0.297 N 
ATOM      9  H   LYS A   2      78.170  59.057  23.435  0.00  0.00    +0.150 HD
ATOM     10  O   ASP A   1      80.879  59.718  21.944  0.00  0.00    -0.274 OA
BRANCH   7  11
ATOM     11  CA  ASP A   1      80.425  57.786  23.307  0.00  0.00    +0.156 C 
BRANCH  11  12
ATOM     12  N   ASP A   1      79.278  56.910  23.590  0.00  0.00    -0.238 NA
ATOM     13  H   ASP A   1      78.866  56.334  22.828  0.00  0.00    +0.142 HD
ENDBRANCH  11  12
BRANCH  11  14
ATOM     14  CB  ASP A   1      81.516  57.033  22.525  0.00  0.00    +0.140 C 
BRANCH  14  15
ATOM     15  CG  ASP A   1      81.152  56.781  21.076  0.00  0.00    +0.367 C 
ATOM     16  OD2 ASP A   1      79.950  56.782  20.739  0.00  0.00    -0.246 OA
ATOM     17  OD1 ASP A   1      82.082  56.577  20.267  0.00  0.00    -0.246 OA
ENDBRANCH  14  15
ENDBRANCH  11  14
ENDBRANCH   7  11
ENDBRANCH   6   8
BRANCH   6  18
ATOM     18  CB  LYS A   2      76.868  60.845  22.025  0.00  0.00    +0.029 C 
BRANCH  18  19
ATOM     19  CG  LYS A   2      76.343  59.833  21.021  0.00  0.00    +0.000 C 
BRANCH  19  20
ATOM     20  CD  LYS A   2      74.819  59.851  20.987  0.00  0.00    -0.024 C 
BRANCH  20  21
ATOM     21  CE  LYS A   2      74.252  58.990  19.871  0.00  0.00    -0.086 C 
BRANCH  21  22
ATOM     22  NZ  LYS A   2      74.764  57.594  19.918  0.00  0.00    +0.380 N 
ATOM     23  HZ1 LYS A   2      74.501  57.160  20.826  0.00  0.00    -0.089 HD
ATOM     24  HZ2 LYS A   2      75.800  57.603  19.824  0.00  0.00    -0.089 HD
ATOM     25  HZ3 LYS A   2      74.348  57.047  19.137  0.00  0.00    -0.089 HD
ENDBRANCH  21  22
ENDBRANCH  20  21
ENDBRANCH  19  20
ENDBRANCH  18  19
ENDBRANCH   6  18
ENDBRANCH   2   6
ENDBRANCH   1   4
BRANCH   1  26
ATOM     26  C   VAL A   3      79.098  65.512  22.250  0.00  0.00    +0.241 C 
ATOM     27  N   ARG A   4      78.911  66.657  22.901  0.00  0.00    -0.297 N 
ATOM     28  H   ARG A   4      78.985  66.660  23.938  0.00  0.00    +0.150 HD
ATOM     29  O   VAL A   3      78.891  65.376  21.044  0.00  0.00    -0.273 OA
BRANCH  27  30
ATOM     30  CA  ARG A   4      78.606  67.909  22.215  0.00  0.00    +0.149 C 
BRANCH  30  31
ATOM     31  C   ARG A   4      79.493  69.032  22.729  0.00  0.00    +0.241 C 
ATOM     32  O   ARG A   4      79.871  69.051  23.897  0.00  0.00    -0.273 OA
ATOM     33  N   CYS A   5      79.801  69.980  21.853  0.00  0.00    -0.297 N 
ATOM     34  H   CYS A   5      79.548  69.848  20.853  0.00  0.00    +0.150 HD
BRANCH  33  35
ATOM     35  CA  CYS A   5      80.484  71.200  22.258  0.00  0.00    +0.149 C 
BRANCH  35  36
ATOM     36  CB  CYS A   5      81.115  71.872  21.047  0.00  0.00    +0.096 C 
ATOM     37  SG  CYS A   5      81.828  73.497  21.367  0.00  0.00    -0.080 S 
ENDBRANCH  35  36
BRANCH  35  38
ATOM     38  C   CYS A   5      79.479  72.142  22.917  0.00  0.00    +0.228 C 
ATOM     39  O   CYS A   5      78.378  72.342  22.398  0.00  0.00    -0.286 OA
ENDBRANCH  35  38
ENDBRANCH  33  35
ENDBRANCH  30  31
BRANCH  30  40
ATOM     40  CB  ARG A   4      77.150  68.318  22.436  0.00  0.00    +0.033 C 
BRANCH  40  41
ATOM     41  CG  ARG A   4      76.138  67.613  21.558  0.00  0.00    +0.045 C 
BRANCH  41  42
ATOM     42  CD  ARG A   4      74.782  68.271  21.740  0.00  0.00    +0.174 C 
BRANCH  42  43
ATOM     43  NE  ARG A   4      73.693  67.505  21.151  0.00  0.00    -0.265 N 
ATOM     44  HE  ARG A   4      73.155  66.874  21.779  0.00  0.00    +0.259 HD
ATOM     45  CZ  ARG A   4      73.334  67.550  19.872  0.00  0.00    +0.342 C 
ATOM     46  NH2 ARG A   4      72.307  66.814  19.458  0.00  0.00    -0.292 N 
ATOM     47 HH21 ARG A   4      71.794  66.211  20.133  0.00  0.00    +0.255 HD
ATOM     48 HH22 ARG A   4      72.017  66.841  18.460  0.00  0.00    +0.255 HD
ATOM     49  NH1 ARG A   4      73.986  68.317  19.000  0.00  0.00    -0.292 N 
ATOM     50 HH11 ARG A   4      74.791  68.894  19.316  0.00  0.00    +0.255 HD
ATOM     51 HH12 ARG A   4      73.690  68.339  18.003  0.00  0.00    +0.255 HD
ENDBRANCH  42  43
ENDBRANCH  41  42
ENDBRANCH  40  41
ENDBRANCH  30  40
ENDBRANCH  27  30
ENDBRANCH   1  26
BRANCH   1  52
ATOM     52  CB  VAL A   3      81.114  64.532  23.321  0.00  0.00    +0.027 C 
ATOM     53  CG2 VAL A   3      81.692  63.345  24.077  0.00  0.00    +0.002 C 
ATOM     54  CG1 VAL A   3      81.848  64.743  22.001  0.00  0.00    +0.002 C 
ENDBRANCH   1  52
TORSDOF 23
REMARK  Name = ../refined-set-2016/3uw5/3uw5_pocket.pdb
REMARK  120 active torsions:
REMARK  status: ('A' for Active; 'I' for Inactive)
REMARK    1  A    between atoms: _1  and  _3
REMARK    2  A    between atoms: _3  and  _4
REMARK    3  A    between atoms: _3  and  _6
REMARK    4  A    between atoms: _9  and  _11
REMARK    5  A    between atoms: _11  and  _12
REMARK    6  A    between atoms: _11  and  _14
REMARK    7  A    between atoms: _14  and  _15
REMARK    8  A    between atoms: _18  and  _20
REMARK    9  A    between atoms: _20  and  _21
REMARK   10  A    between atoms: _20  and  _23
REMARK   11  A    between atoms: _23  and  _24
REMARK   12  A    between atoms: _30  and  _32
REMARK   13  A    between atoms: _32  and  _33
REMARK   14  A    between atoms: _32  and  _35
REMARK   15  A    between atoms: _35  and  _36
REMARK   16  A    between atoms: _42  and  _44
REMARK   17  A    between atoms: _44  and  _45
REMARK   18  A    between atoms: _44  and  _47
REMARK   19  A    between atoms: _47  and  _48
REMARK   20  A    between atoms: _53  and  _55
REMARK   21  A    between atoms: _55  and  _56
REMARK   22  A    between atoms: _55  and  _58
REMARK   23  A    between atoms: _58  and  _59
REMARK   24  A    between atoms: _62  and  _64
REMARK   25  A    between atoms: _64  and  _65
REMARK   26  A    between atoms: _67  and  _69
REMARK   27  A    between atoms: _69  and  _70
REMARK   28  A    between atoms: _69  and  _72
REMARK   29  A    between atoms: _72  and  _73
REMARK   30  A    between atoms: _76  and  _78
REMARK   31  A    between atoms: _78  and  _79
REMARK   32  A    between atoms: _78  and  _81
REMARK   33  A    between atoms: _81  and  _82
REMARK   34  A    between atoms: _82  and  _83
REMARK   35  A    between atoms: _83  and  _84
REMARK   36  A    between atoms: _84  and  _85
REMARK   37  A    between atoms: _89  and  _91
REMARK   38  A    between atoms: _91  and  _92
REMARK   39  A    between atoms: _91  and  _94
REMARK   40  A    between atoms: _97  and  _99
REMARK   41  A    between atoms: _99  and  _100
REMARK   42  A    between atoms: _99  and  _102
REMARK   43  A    between atoms: _102  and  _103
REMARK   44  A    between atoms: _103  and  _104
REMARK   45  A    between atoms: _104  and  _105
REMARK   46  A    between atoms: _114  and  _116
REMARK   47  A    between atoms: _116  and  _117
REMARK   48  A    between atoms: _116  and  _119
REMARK   49  A    between atoms: _121  and  _123
REMARK   50  A    between atoms: _123  and  _124
REMARK   51  A    between atoms: _123  and  _126
REMARK   52  A    between atoms: _126  and  _127
REMARK   53  A    between atoms: _132  and  _133
REMARK   54  A    between atoms: _135  and  _137
REMARK   55  A    between atoms: _137  and  _138
REMARK   56  A    between atoms: _140  and  _142
REMARK   57  A    between atoms: _142  and  _143
REMARK   58  A    between atoms: _145  and  _147
REMARK   59  A    between atoms: _147  and  _148
REMARK   60  A    between atoms: _147  and  _150
REMARK   61  A    between atoms: _150  and  _151
REMARK   62  A    between atoms: _154  and  _156
REMARK   63  A    between atoms: _156  and  _157
REMARK   64  A    between atoms: _156  and  _159
REMARK   65  A    between atoms: _159  and  _160
REMARK   66  A    between atoms: _160  and  _161
REMARK   67  A    between atoms: _166  and  _168
REMARK   68  A    between atoms: _168  and  _169
REMARK   69  A    between atoms: _168  and  _171
REMARK   70  A    between atoms: _171  and  _172
REMARK   71  A    between atoms: _174  and  _176
REMARK   72  A    between atoms: _176  and  _177
REMARK   73  A    between atoms: _176  and  _179
REMARK   74  A    between atoms: _179  and  _180
REMARK   75  A    between atoms: _190  and  _192
REMARK   76  A    between atoms: _192  and  _193
REMARK   77  A    between atoms: _192  and  _195
REMARK   78  A    between atoms: _195  and  _196
REMARK   79  A    between atoms: _196  and  _197
REMARK   80  A    between atoms: _197  and  _198
REMARK   81  A    between atoms: _198  and  _199
REMARK   82  A    between atoms: _203  and  _205
REMARK   83  A    between atoms: _205  and  _206
REMARK   84  A    between atoms: _205  and  _208
REMARK   85  A    between atoms: _208  and  _209
REMARK   86  A    between atoms: _209  and  _210
REMARK   87  A    between atoms: _210  and  _211
REMARK   88  A    between atoms: _220  and  _222
REMARK   89  A    between atoms: _222  and  _223
REMARK   90  A    between atoms: _222  and  _225
REMARK   91  A    between atoms: _225  and  _226
REMARK   92  A    between atoms: _229  and  _231
REMARK   93  A    between atoms: _231  and  _232
REMARK   94  A    between atoms: _231  and  _234
REMARK   95  A    between atoms: _234  and  _235
REMARK   96  A    between atoms: _239  and  _240
REMARK   97  A    between atoms: _245  and  _247
REMARK   98  A    between atoms: _247  and  _248
REMARK   99  A    between atoms: _247  and  _250
REMARK  100  A    between atoms: _250  and  _251
REMARK  101  A    between atoms: _251  and  _252
REMARK  102  A    between atoms: _255  and  _257
REMARK  103  A    between atoms: _257  and  _258
REMARK  104  A    between atoms: _257  and  _260
REMARK  105  A    between atoms: _260  and  _261
REMARK  106  A    between atoms: _266  and  _268
REMARK  107  A    between atoms: _268  and  _269
REMARK  108  A    between atoms: _268  and  _271
REMARK  109  A    between atoms: _271  and  _272
REMARK  110  A    between atoms: _272  and  _273
REMARK  111  A    between atoms: _273  and  _274
REMARK  112  A    between atoms: _274  and  _275
REMARK  113  A    between atoms: _279  and  _281
REMARK  114  A    between atoms: _281  and  _282
REMARK  115  A    between atoms: _281  and  _284
REMARK  116  A    between atoms: _284  and  _285
REMARK  117  A    between atoms: _295  and  _297
REMARK  118  A    between atoms: _297  and  _298
REMARK  119  A    between atoms: _297  and  _300
REMARK  120  A    between atoms: _300  and  _301
REMARK                            x       y       z     vdW  Elec       q    Type
REMARK                         _______ _______ _______ _____ _____    ______ ____
ROOT
ATOM      1  CA  SER A   6      81.973  56.885  16.900  0.00  0.00    +0.178 C 
ENDROOT
BRANCH   1   2
ATOM      2  C   SER A   6      83.458  57.233  17.022  0.00  0.00    +0.243 C 
ATOM      3  N   TRP A   7      83.876  57.530  18.249  0.00  0.00    -0.297 N 
ATOM      4  H   TRP A   7      83.190  57.521  19.031  0.00  0.00    +0.150 HD
ATOM      5  O   SER A   6      84.200  57.226  16.036  0.00  0.00    -0.273 OA
BRANCH   3   6
ATOM      6  CA  TRP A   7      85.264  57.867  18.532  0.00  0.00    +0.153 C 
BRANCH   6   7
ATOM      7  C   TRP A   7      86.154  56.675  18.351  0.00  0.00    +0.241 C 
ATOM      8  O   TRP A   7      85.835  55.580  18.812  0.00  0.00    -0.273 OA
ATOM      9  N   LYS A   8      87.271  56.880  17.663  0.00  0.00    -0.297 N 
ATOM     10  H   LYS A   8      87.438  57.820  17.251  0.00  0.00    +0.150 HD
BRANCH   9  11
ATOM     11  CA  LYS A   8      88.274  55.837  17.462  0.00  0.00    +0.149 C 
BRANCH  11  12
ATOM     12  C   LYS A   8      89.423  56.083  18.429  0.00  0.00    +0.241 C 
ATOM     13  N   ARG A   9      90.114  55.022  18.839  0.00  0.00    -0.298 N 
ATOM     14  H   ARG A   9      89.862  54.080  18.478  0.00  0.00    +0.150 HD
ATOM     15  O   LYS A   8      89.680  57.228  18.804  0.00  0.00    -0.273 OA
BRANCH  13  16
ATOM     16  CA  ARG A   9      91.221  55.152  19.787  0.00  0.00    +0.137 C 
BRANCH  16  17
ATOM     17  C   ARG A   9      92.266  56.120  19.237  0.00  0.00    +0.227 C 
ATOM     18  O   ARG A   9      92.607  56.064  18.053  0.00  0.00    -0.286 OA
ENDBRANCH  16  17
BRANCH  16  19
ATOM     19  CB  ARG A   9      91.847  53.784  20.106  0.00  0.00    +0.031 C 
BRANCH  19  20
ATOM     20  CG  ARG A   9      92.593  53.119  18.959  0.00  0.00    +0.045 C 
BRANCH  20  21
ATOM     21  CD  ARG A   9      93.101  51.738  19.353  0.00  0.00    +0.174 C 
BRANCH  21  22
ATOM     22  NE  ARG A   9      94.258  51.348  18.557  0.00  0.00    -0.265 N 
ATOM     23  CZ  ARG A   9      94.949  50.226  18.734  0.00  0.00    +0.342 C 
ATOM     24  NH2 ARG A   9      94.602  49.371  19.683  0.00  0.00    -0.292 N 
ATOM     25 HH21 ARG A   9      93.786  49.576  20.294  0.00  0.00    +0.255 HD
ATOM     26 HH22 ARG A   9      95.146  48.495  19.818  0.00  0.00    +0.255 HD
ATOM     27  NH1 ARG A   9      95.989  49.963  17.959  0.00  0.00    -0.292 N 
ATOM     28 HH11 ARG A   9      96.531  49.086  18.096  0.00  0.00    +0.255 HD
ATOM     29 HH12 ARG A   9      96.264  50.633  17.213  0.00  0.00    +0.255 HD
ATOM     30  HE  ARG A   9      94.564  51.991  17.799  0.00  0.00    +0.259 HD
ENDBRANCH  21  22
ENDBRANCH  20  21
ENDBRANCH  19  20
ENDBRANCH  16  19
ENDBRANCH  13  16
ENDBRANCH  11  12
BRANCH  11  31
ATOM     31  CB  LYS A   8      88.778  55.861  16.023  0.00  0.00    +0.029 C 
BRANCH  31  32
ATOM     32  CG  LYS A   8      87.701  55.586  14.983  0.00  0.00    +0.000 C 
BRANCH  32  33
ATOM     33  CD  LYS A   8      87.107  54.194  15.145  0.00  0.00    -0.024 C 
BRANCH  33  34
ATOM     34  CE  LYS A   8      86.281  53.786  13.935  0.00  0.00    -0.086 C 
BRANCH  34  35
ATOM     35  NZ  LYS A   8      85.931  52.338  13.963  0.00  0.00    +0.380 N 
ATOM     36  HZ1 LYS A   8      85.378  52.133  14.820  0.00  0.00    -0.089 HD
ATOM     37  HZ2 LYS A   8      86.803  51.772  13.968  0.00  0.00    -0.089 HD
ATOM     38  HZ3 LYS A   8      85.368  52.102  13.121  0.00  0.00    -0.089 HD
ENDBRANCH  34  35
ENDBRANCH  33  34
ENDBRANCH  32  33
ENDBRANCH  31  32
ENDBRANCH  11  31
ENDBRANCH   9  11
ENDBRANCH   6   7
BRANCH   6  39
ATOM     39  CB  TRP A   7      85.395  58.405  19.950  0.00  0.00    +0.057 C 
BRANCH  39  40
ATOM     40  CG  TRP A   7      84.780  59.767  20.095  0.00  0.00    -0.002 A 
ATOM     41  CD1 TRP A   7      83.451  60.072  20.347  0.00  0.00    +0.068 A 
ATOM     42  NE1 TRP A   7      83.260  61.429  20.396  0.00  0.00    -0.352 N 
ATOM     43  HE1 TRP A   7      82.348  61.894  20.579  0.00  0.00    +0.166 HD
ATOM     44  CE2 TRP A   7      84.429  62.080  20.172  0.00  0.00    +0.056 A 
ATOM     45  CZ2 TRP A   7      84.721  63.431  20.121  0.00  0.00    +0.017 A 
ATOM     46  CH2 TRP A   7      86.047  63.785  19.874  0.00  0.00    +0.001 A 
ATOM     47  CZ3 TRP A   7      87.043  62.823  19.676  0.00  0.00    +0.000 A 
ATOM     48  CE3 TRP A   7      86.758  61.458  19.716  0.00  0.00    +0.001 A 
ATOM     49  CD2 TRP A   7      85.456  61.060  19.969  0.00  0.00    +0.013 A 
ENDBRANCH  39  40
ENDBRANCH   6  39
ENDBRANCH   3   6
ENDBRANCH   1   2
BRANCH   1  51
ATOM     50  C   GLN A   5      81.190  59.169  17.355  0.00  0.00    +0.241 C 
ATOM     51  N   SER A   6      81.135  57.862  17.606  0.00  0.00    -0.295 N 
ATOM     52  H   SER A   6      80.472  57.520  18.331  0.00  0.00    +0.150 HD
ATOM     53  O   GLN A   5      81.983  59.666  16.561  0.00  0.00    -0.273 OA
BRANCH  50  54
ATOM     54  CA  GLN A   5      80.202  60.056  18.117  0.00  0.00    +0.149 C 
BRANCH  54  57
ATOM     55  C   LEU A   4      80.305  62.484  18.433  0.00  0.00    +0.241 C 
ATOM     56  O   LEU A   4      80.164  62.410  19.654  0.00  0.00    -0.273 OA
ATOM     57  N   GLN A   5      80.323  61.424  17.630  0.00  0.00    -0.297 N 
ATOM     58  H   GLN A   5      80.428  61.579  16.607  0.00  0.00    +0.150 HD
BRANCH  55  59
ATOM     59  CA  LEU A   4      80.483  63.835  17.743  0.00  0.00    +0.149 C 
BRANCH  59  61
ATOM     60  C   GLY A   3      78.718  65.524  17.549  0.00  0.00    +0.243 C 
ATOM     61  N   LEU A   4      79.580  64.842  18.302  0.00  0.00    -0.297 N 
ATOM     62  H   LEU A   4      79.612  65.032  19.324  0.00  0.00    +0.150 HD
ATOM     63  O   GLY A   3      78.628  65.384  16.334  0.00  0.00    -0.273 OA
BRANCH  60  64
ATOM     64  CA  GLY A   3      77.817  66.513  18.265  0.00  0.00    +0.176 C 
BRANCH  64  67
ATOM     65  C   GLY A   2      78.448  68.868  18.166  0.00  0.00    +0.243 C 
ATOM     66  O   GLY A   2      79.081  68.804  19.217  0.00  0.00    -0.273 OA
ATOM     67  N   GLY A   3      77.825  67.823  17.626  0.00  0.00    -0.295 N 
ATOM     68  H   GLY A   3      77.329  67.945  16.720  0.00  0.00    +0.150 HD
BRANCH  65  69
ATOM     69  CA  GLY A   2      78.326  70.186  17.431  0.00  0.00    +0.176 C 
BRANCH  69  72
ATOM     70  C   TYR A   1      76.787  71.210  19.021  0.00  0.00    +0.239 C 
ATOM     71  O   TYR A   1      75.951  70.320  18.854  0.00  0.00    -0.274 OA
ATOM     72  N   GLY A   2      77.951  71.234  18.378  0.00  0.00    -0.296 N 
ATOM     73  H   GLY A   2      78.611  72.018  18.554  0.00  0.00    +0.150 HD
BRANCH  70  74
ATOM     74  CA  TYR A   1      76.519  72.350  20.015  0.00  0.00    +0.149 C 
BRANCH  74  75
ATOM     75  N   TYR A   1      77.462  73.482  19.867  0.00  0.00    -0.238 NA
ATOM     76  H   TYR A   1      78.114  73.670  20.655  0.00  0.00    +0.142 HD
ENDBRANCH  74  75
BRANCH  74  77
ATOM     77  CB  TYR A   1      75.054  72.816  19.925  0.00  0.00    +0.053 C 
BRANCH  77  78
ATOM     78  CG  TYR A   1      74.097  72.152  20.912  0.00  0.00    -0.020 A 
ATOM     79  CD2 TYR A   1      74.297  72.256  22.283  0.00  0.00    -0.001 A 
ATOM     80  CE2 TYR A   1      73.421  71.674  23.190  0.00  0.00    +0.036 A 
ATOM     81  CZ  TYR A   1      72.311  70.986  22.734  0.00  0.00    +0.134 A 
ATOM     82  CE1 TYR A   1      72.081  70.876  21.377  0.00  0.00    +0.036 A 
ATOM     83  CD1 TYR A   1      72.966  71.458  20.473  0.00  0.00    -0.001 A 
BRANCH  81  84
ATOM     84  OH  TYR A   1      71.442  70.416  23.655  0.00  0.00    -0.506 OA
ATOM     85  HH  TYR A   1      71.769  70.598  24.572  0.00  0.00    +0.292 HD
ENDBRANCH  81  84
ENDBRANCH  77  78
ENDBRANCH  74  77
ENDBRANCH  70  74
ENDBRANCH  69  72
ENDBRANCH  65  69
ENDBRANCH  64  67
ENDBRANCH  60  64
ENDBRANCH  59  61
BRANCH  59  86
ATOM     86  CB  LEU A   4      81.936  64.283  17.880  0.00  0.00    +0.029 C 
BRANCH  86  87
ATOM     87  CG  LEU A   4      82.359  65.472  17.013  0.00  0.00    +0.002 C 
ATOM     88  CD2 LEU A   4      83.769  65.912  17.382  0.00  0.00    +0.000 C 
ATOM     89  CD1 LEU A   4      82.263  65.153  15.524  0.00  0.00    +0.000 C 
ENDBRANCH  86  87
ENDBRANCH  59  86
ENDBRANCH  55  59
ENDBRANCH  54  57
BRANCH  54  90
ATOM     90  CB  GLN A   5      78.767  59.559  17.920  0.00  0.00    +0.039 C 
BRANCH  90  91
ATOM     91  CG  GLN A   5      78.323  59.520  16.464  0.00  0.00    +0.087 C 
BRANCH  91  92
ATOM     92  CD  GLN A   5      76.947  58.907  16.284  0.00  0.00    +0.219 C 
ATOM     93  OE1 GLN A   5      76.106  58.964  17.178  0.00  0.00    -0.275 OA
ATOM     94  NE2 GLN A   5      76.716  58.313  15.123  0.00  0.00    -0.329 N 
ATOM     95 HE21 GLN A   5      75.793  57.871  14.940  0.00  0.00    +0.145 HD
ATOM     96 HE22 GLN A   5      77.458  58.289  14.395  0.00  0.00    +0.145 HD
ENDBRANCH  91  92
ENDBRANCH  90  91
ENDBRANCH  54  90
ENDBRANCH  50  54
ENDBRANCH   1  51
BRANCH   1  97
ATOM     97  CB  SER A   6      81.558  56.775  15.426  0.00  0.00    +0.166 C 
BRANCH  97  98
ATOM     98  OG  SER A   6      80.180  56.463  15.310  0.00  0.00    -0.380 OA
ATOM     99  H   SER A   6      79.937  56.398  14.352  0.00  0.00    +0.211 HD
ENDBRANCH  97  98
ENDBRANCH   1  97
TORSDOF 39
REMARK  Name = ../refined-set-2016/3uw5/3uw5_pocket.pdb
REMARK  120 active torsions:
REMARK  status: ('A' for Active; 'I' for Inactive)
REMARK    1  A    between atoms: _1  and  _3
REMARK    2  A    between atoms: _3  and  _4
REMARK    3  A    between atoms: _3  and  _6
REMARK    4  A    between atoms: _9  and  _11
REMARK    5  A    between atoms: _11  and  _12
REMARK    6  A    between atoms: _11  and  _14
REMARK    7  A    between atoms: _14  and  _15
REMARK    8  A    between atoms: _18  and  _20
REMARK    9  A    between atoms: _20  and  _21
REMARK   10  A    between atoms: _20  and  _23
REMARK   11  A    between atoms: _23  and  _24
REMARK   12  A    between atoms: _30  and  _32
REMARK   13  A    between atoms: _32  and  _33
REMARK   14  A    between atoms: _32  and  _35
REMARK   15  A    between atoms: _35  and  _36
REMARK   16  A    between atoms: _42  and  _44
REMARK   17  A    between atoms: _44  and  _45
REMARK   18  A    between atoms: _44  and  _47
REMARK   19  A    between atoms: _47  and  _48
REMARK   20  A    between atoms: _53  and  _55
REMARK   21  A    between atoms: _55  and  _56
REMARK   22  A    between atoms: _55  and  _58
REMARK   23  A    between atoms: _58  and  _59
REMARK   24  A    between atoms: _62  and  _64
REMARK   25  A    between atoms: _64  and  _65
REMARK   26  A    between atoms: _67  and  _69
REMARK   27  A    between atoms: _69  and  _70
REMARK   28  A    between atoms: _69  and  _72
REMARK   29  A    between atoms: _72  and  _73
REMARK   30  A    between atoms: _76  and  _78
REMARK   31  A    between atoms: _78  and  _79
REMARK   32  A    between atoms: _78  and  _81
REMARK   33  A    between atoms: _81  and  _82
REMARK   34  A    between atoms: _82  and  _83
REMARK   35  A    between atoms: _83  and  _84
REMARK   36  A    between atoms: _84  and  _85
REMARK   37  A    between atoms: _89  and  _91
REMARK   38  A    between atoms: _91  and  _92
REMARK   39  A    between atoms: _91  and  _94
REMARK   40  A    between atoms: _97  and  _99
REMARK   41  A    between atoms: _99  and  _100
REMARK   42  A    between atoms: _99  and  _102
REMARK   43  A    between atoms: _102  and  _103
REMARK   44  A    between atoms: _103  and  _104
REMARK   45  A    between atoms: _104  and  _105
REMARK   46  A    between atoms: _114  and  _116
REMARK   47  A    between atoms: _116  and  _117
REMARK   48  A    between atoms: _116  and  _119
REMARK   49  A    between atoms: _121  and  _123
REMARK   50  A    between atoms: _123  and  _124
REMARK   51  A    between atoms: _123  and  _126
REMARK   52  A    between atoms: _126  and  _127
REMARK   53  A    between atoms: _132  and  _133
REMARK   54  A    between atoms: _135  and  _137
REMARK   55  A    between atoms: _137  and  _138
REMARK   56  A    between atoms: _140  and  _142
REMARK   57  A    between atoms: _142  and  _143
REMARK   58  A    between atoms: _145  and  _147
REMARK   59  A    between atoms: _147  and  _148
REMARK   60  A    between atoms: _147  and  _150
REMARK   61  A    between atoms: _150  and  _151
REMARK   62  A    between atoms: _154  and  _156
REMARK   63  A    between atoms: _156  and  _157
REMARK   64  A    between atoms: _156  and  _159
REMARK   65  A    between atoms: _159  and  _160
REMARK   66  A    between atoms: _160  and  _161
REMARK   67  A    between atoms: _166  and  _168
REMARK   68  A    between atoms: _168  and  _169
REMARK   69  A    between atoms: _168  and  _171
REMARK   70  A    between atoms: _171  and  _172
REMARK   71  A    between atoms: _174  and  _176
REMARK   72  A    between atoms: _176  and  _177
REMARK   73  A    between atoms: _176  and  _179
REMARK   74  A    between atoms: _179  and  _180
REMARK   75  A    between atoms: _190  and  _192
REMARK   76  A    between atoms: _192  and  _193
REMARK   77  A    between atoms: _192  and  _195
REMARK   78  A    between atoms: _195  and  _196
REMARK   79  A    between atoms: _196  and  _197
REMARK   80  A    between atoms: _197  and  _198
REMARK   81  A    between atoms: _198  and  _199
REMARK   82  A    between atoms: _203  and  _205
REMARK   83  A    between atoms: _205  and  _206
REMARK   84  A    between atoms: _205  and  _208
REMARK   85  A    between atoms: _208  and  _209
REMARK   86  A    between atoms: _209  and  _210
REMARK   87  A    between atoms: _210  and  _211
REMARK   88  A    between atoms: _220  and  _222
REMARK   89  A    between atoms: _222  and  _223
REMARK   90  A    between atoms: _222  and  _225
REMARK   91  A    between atoms: _225  and  _226
REMARK   92  A    between atoms: _229  and  _231
REMARK   93  A    between atoms: _231  and  _232
REMARK   94  A    between atoms: _231  and  _234
REMARK   95  A    between atoms: _234  and  _235
REMARK   96  A    between atoms: _239  and  _240
REMARK   97  A    between atoms: _245  and  _247
REMARK   98  A    between atoms: _247  and  _248
REMARK   99  A    between atoms: _247  and  _250
REMARK  100  A    between atoms: _250  and  _251
REMARK  101  A    between atoms: _251  and  _252
REMARK  102  A    between atoms: _255  and  _257
REMARK  103  A    between atoms: _257  and  _258
REMARK  104  A    between atoms: _257  and  _260
REMARK  105  A    between atoms: _260  and  _261
REMARK  106  A    between atoms: _266  and  _268
REMARK  107  A    between atoms: _268  and  _269
REMARK  108  A    between atoms: _268  and  _271
REMARK  109  A    between atoms: _271  and  _272
REMARK  110  A    between atoms: _272  and  _273
REMARK  111  A    between atoms: _273  and  _274
REMARK  112  A    between atoms: _274  and  _275
REMARK  113  A    between atoms: _279  and  _281
REMARK  114  A    between atoms: _281  and  _282
REMARK  115  A    between atoms: _281  and  _284
REMARK  116  A    between atoms: _284  and  _285
REMARK  117  A    between atoms: _295  and  _297
REMARK  118  A    between atoms: _297  and  _298
REMARK  119  A    between atoms: _297  and  _300
REMARK  120  A    between atoms: _300  and  _301
REMARK                            x       y       z     vdW  Elec       q    Type
REMARK                         _______ _______ _______ _____ _____    ______ ____
ROOT
ATOM      1  CA  ASP A   2      92.325  64.010  19.204  0.00  0.00    +0.160 C 
ENDROOT
BRANCH   1   2
ATOM      2  C   ASP A   2      91.132  64.967  19.216  0.00  0.00    +0.244 C 
ATOM      3  N   PRO A   3      90.555  65.230  20.404  0.00  0.00    -0.273 N 
ATOM      4  CD  PRO A   3      90.827  64.590  21.707  0.00  0.00    +0.094 C 
ATOM      5  CG  PRO A   3      89.608  64.923  22.517  0.00  0.00    +0.024 C 
ATOM      6  CB  PRO A   3      89.128  66.230  21.969  0.00  0.00    +0.030 C 
ATOM      7  CA  PRO A   3      89.354  66.070  20.465  0.00  0.00    +0.140 C 
ATOM      8  O   ASP A   2      90.729  65.456  18.163  0.00  0.00    -0.273 OA
BRANCH   7   9
ATOM      9  C   PRO A   3      89.453  67.423  19.743  0.00  0.00    +0.227 C 
ATOM     10  O   PRO A   3      88.534  67.784  19.006  0.00  0.00    -0.286 OA
ENDBRANCH   7   9
ENDBRANCH   1   2
BRANCH   1  13
ATOM     11  C   ASP A   1      91.650  61.676  19.044  0.00  0.00    +0.239 C 
ATOM     12  O   ASP A   1      91.606  61.550  20.266  0.00  0.00    -0.274 OA
ATOM     13  N   ASP A   2      91.980  62.815  18.445  0.00  0.00    -0.297 N 
ATOM     14  H   ASP A   2      91.992  62.855  17.406  0.00  0.00    +0.150 HD
BRANCH  11  15
ATOM     15  CA  ASP A   1      91.298  60.505  18.145  0.00  0.00    +0.156 C 
BRANCH  15  16
ATOM     16  N   ASP A   1      91.894  59.295  18.725  0.00  0.00    -0.238 NA
ATOM     17  H   ASP A   1      91.284  58.489  18.969  0.00  0.00    +0.142 HD
ENDBRANCH  15  16
BRANCH  15  18
ATOM     18  CB  ASP A   1      89.770  60.419  18.091  0.00  0.00    +0.140 C 
BRANCH  18  19
ATOM     19  CG  ASP A   1      89.236  59.790  16.822  0.00  0.00    +0.367 C 
ATOM     20  OD2 ASP A   1      88.011  59.560  16.796  0.00  0.00    -0.246 OA
ATOM     21  OD1 ASP A   1      89.992  59.526  15.867  0.00  0.00    -0.246 OA
ENDBRANCH  18  19
ENDBRANCH  15  18
ENDBRANCH  11  15
ENDBRANCH   1  13
BRANCH   1  22
ATOM     22  CB  ASP A   2      93.538  64.703  18.587  0.00  0.00    +0.143 C 
BRANCH  22  23
ATOM     23  CG  ASP A   2      93.925  65.954  19.339  0.00  0.00    +0.367 C 
ATOM     24  OD2 ASP A   2      94.346  65.834  20.507  0.00  0.00    -0.246 OA
ATOM     25  OD1 ASP A   2      93.794  67.053  18.765  0.00  0.00    -0.246 OA
ENDBRANCH  22  23
ENDBRANCH   1  22
TORSDOF 9
REMARK  Name = ../refined-set-2016/3uw5/3uw5_pocket.pdb
REMARK  120 active torsions:
REMARK  status: ('A' for Active; 'I' for Inactive)
REMARK    1  A    between atoms: _1  and  _3
REMARK    2  A    between atoms: _3  and  _4
REMARK    3  A    between atoms: _3  and  _6
REMARK    4  A    between atoms: _9  and  _11
REMARK    5  A    between atoms: _11  and  _12
REMARK    6  A    between atoms: _11  and  _14
REMARK    7  A    between atoms: _14  and  _15
REMARK    8  A    between atoms: _18  and  _20
REMARK    9  A    between atoms: _20  and  _21
REMARK   10  A    between atoms: _20  and  _23
REMARK   11  A    between atoms: _23  and  _24
REMARK   12  A    between atoms: _30  and  _32
REMARK   13  A    between atoms: _32  and  _33
REMARK   14  A    between atoms: _32  and  _35
REMARK   15  A    between atoms: _35  and  _36
REMARK   16  A    between atoms: _42  and  _44
REMARK   17  A    between atoms: _44  and  _45
REMARK   18  A    between atoms: _44  and  _47
REMARK   19  A    between atoms: _47  and  _48
REMARK   20  A    between atoms: _53  and  _55
REMARK   21  A    between atoms: _55  and  _56
REMARK   22  A    between atoms: _55  and  _58
REMARK   23  A    between atoms: _58  and  _59
REMARK   24  A    between atoms: _62  and  _64
REMARK   25  A    between atoms: _64  and  _65
REMARK   26  A    between atoms: _67  and  _69
REMARK   27  A    between atoms: _69  and  _70
REMARK   28  A    between atoms: _69  and  _72
REMARK   29  A    between atoms: _72  and  _73
REMARK   30  A    between atoms: _76  and  _78
REMARK   31  A    between atoms: _78  and  _79
REMARK   32  A    between atoms: _78  and  _81
REMARK   33  A    between atoms: _81  and  _82
REMARK   34  A    between atoms: _82  and  _83
REMARK   35  A    between atoms: _83  and  _84
REMARK   36  A    between atoms: _84  and  _85
REMARK   37  A    between atoms: _89  and  _91
REMARK   38  A    between atoms: _91  and  _92
REMARK   39  A    between atoms: _91  and  _94
REMARK   40  A    between atoms: _97  and  _99
REMARK   41  A    between atoms: _99  and  _100
REMARK   42  A    between atoms: _99  and  _102
REMARK   43  A    between atoms: _102  and  _103
REMARK   44  A    between atoms: _103  and  _104
REMARK   45  A    between atoms: _104  and  _105
REMARK   46  A    between atoms: _114  and  _116
REMARK   47  A    between atoms: _116  and  _117
REMARK   48  A    between atoms: _116  and  _119
REMARK   49  A    between atoms: _121  and  _123
REMARK   50  A    between atoms: _123  and  _124
REMARK   51  A    between atoms: _123  and  _126
REMARK   52  A    between atoms: _126  and  _127
REMARK   53  A    between atoms: _132  and  _133
REMARK   54  A    between atoms: _135  and  _137
REMARK   55  A    between atoms: _137  and  _138
REMARK   56  A    between atoms: _140  and  _142
REMARK   57  A    between atoms: _142  and  _143
REMARK   58  A    between atoms: _145  and  _147
REMARK   59  A    between atoms: _147  and  _148
REMARK   60  A    between atoms: _147  and  _150
REMARK   61  A    between atoms: _150  and  _151
REMARK   62  A    between atoms: _154  and  _156
REMARK   63  A    between atoms: _156  and  _157
REMARK   64  A    between atoms: _156  and  _159
REMARK   65  A    between atoms: _159  and  _160
REMARK   66  A    between atoms: _160  and  _161
REMARK   67  A    between atoms: _166  and  _168
REMARK   68  A    between atoms: _168  and  _169
REMARK   69  A    between atoms: _168  and  _171
REMARK   70  A    between atoms: _171  and  _172
REMARK   71  A    between atoms: _174  and  _176
REMARK   72  A    between atoms: _176  and  _177
REMARK   73  A    between atoms: _176  and  _179
REMARK   74  A    between atoms: _179  and  _180
REMARK   75  A    between atoms: _190  and  _192
REMARK   76  A    between atoms: _192  and  _193
REMARK   77  A    between atoms: _192  and  _195
REMARK   78  A    between atoms: _195  and  _196
REMARK   79  A    between atoms: _196  and  _197
REMARK   80  A    between atoms: _197  and  _198
REMARK   81  A    between atoms: _198  and  _199
REMARK   82  A    between atoms: _203  and  _205
REMARK   83  A    between atoms: _205  and  _206
REMARK   84  A    between atoms: _205  and  _208
REMARK   85  A    between atoms: _208  and  _209
REMARK   86  A    between atoms: _209  and  _210
REMARK   87  A    between atoms: _210  and  _211
REMARK   88  A    between atoms: _220  and  _222
REMARK   89  A    between atoms: _222  and  _223
REMARK   90  A    between atoms: _222  and  _225
REMARK   91  A    between atoms: _225  and  _226
REMARK   92  A    between atoms: _229  and  _231
REMARK   93  A    between atoms: _231  and  _232
REMARK   94  A    between atoms: _231  and  _234
REMARK   95  A    between atoms: _234  and  _235
REMARK   96  A    between atoms: _239  and  _240
REMARK   97  A    between atoms: _245  and  _247
REMARK   98  A    between atoms: _247  and  _248
REMARK   99  A    between atoms: _247  and  _250
REMARK  100  A    between atoms: _250  and  _251
REMARK  101  A    between atoms: _251  and  _252
REMARK  102  A    between atoms: _255  and  _257
REMARK  103  A    between atoms: _257  and  _258
REMARK  104  A    between atoms: _257  and  _260
REMARK  105  A    between atoms: _260  and  _261
REMARK  106  A    between atoms: _266  and  _268
REMARK  107  A    between atoms: _268  and  _269
REMARK  108  A    between atoms: _268  and  _271
REMARK  109  A    between atoms: _271  and  _272
REMARK  110  A    between atoms: _272  and  _273
REMARK  111  A    between atoms: _273  and  _274
REMARK  112  A    between atoms: _274  and  _275
REMARK  113  A    between atoms: _279  and  _281
REMARK  114  A    between atoms: _281  and  _282
REMARK  115  A    between atoms: _281  and  _284
REMARK  116  A    between atoms: _284  and  _285
REMARK  117  A    between atoms: _295  and  _297
REMARK  118  A    between atoms: _297  and  _298
REMARK  119  A    between atoms: _297  and  _300
REMARK  120  A    between atoms: _300  and  _301
REMARK                            x       y       z     vdW  Elec       q    Type
REMARK                         _______ _______ _______ _____ _____    ______ ____
ROOT
ATOM      1  C   GLU A   1      87.132  67.740  15.549  0.00  0.00    +0.238 C 
ATOM      2  N   HIS A   2      87.292  68.587  16.565  0.00  0.00    -0.298 N 
ATOM      3  H   HIS A   2      87.994  68.363  17.299  0.00  0.00    +0.150 HD
ATOM      4  O   GLU A   1      86.302  67.917  14.658  0.00  0.00    -0.274 OA
ENDROOT
BRANCH   1   5
ATOM      5  CA  GLU A   1      88.055  66.513  15.517  0.00  0.00    +0.145 C 
BRANCH   5   6
ATOM      6  N   GLU A   1      89.412  66.862  15.933  0.00  0.00    -0.238 NA
ATOM      7  H   GLU A   1      89.804  66.432  16.795  0.00  0.00    +0.142 HD
ENDBRANCH   5   6
BRANCH   5   8
ATOM      8  CB  GLU A   1      87.488  65.384  16.392  0.00  0.00    +0.038 C 
BRANCH   8   9
ATOM      9  CG  GLU A   1      88.249  64.065  16.295  0.00  0.00    +0.116 C 
BRANCH   9  10
ATOM     10  CD  GLU A   1      88.281  63.486  14.889  0.00  0.00    +0.365 C 
ATOM     11  OE2 GLU A   1      89.386  63.175  14.396  0.00  0.00    -0.246 OA
ATOM     12  OE1 GLU A   1      87.208  63.341  14.268  0.00  0.00    -0.246 OA
ENDBRANCH   9  10
ENDBRANCH   8   9
ENDBRANCH   5   8
ENDBRANCH   1   5
BRANCH   2  13
ATOM     13  CA  HIS A   2      86.511  69.827  16.684  0.00  0.00    +0.143 C 
BRANCH  13  14
ATOM     14  C   HIS A   2      86.727  70.695  15.467  0.00  0.00    +0.227 C 
ATOM     15  O   HIS A   2      85.776  71.210  14.878  0.00  0.00    -0.286 OA
ENDBRANCH  13  14
BRANCH  13  16
ATOM     16  CB  HIS A   2      86.917  70.591  17.951  0.00  0.00    +0.075 C 
BRANCH  16  17
ATOM     17  CG  HIS A   2      85.822  71.460  18.543  0.00  0.00    +0.082 A 
ATOM     18  ND1 HIS A   2      85.747  71.715  19.862  0.00  0.00    -0.227 NA
ATOM     19  CE1 HIS A   2      84.689  72.514  20.109  0.00  0.00    +0.199 A 
ATOM     20  NE2 HIS A   2      84.081  72.772  18.946  0.00  0.00    -0.221 NA
ATOM     21  CD2 HIS A   2      84.753  72.136  17.954  0.00  0.00    +0.115 A 
ENDBRANCH  16  17
ENDBRANCH  13  16
ENDBRANCH   2  13
TORSDOF 9
REMARK  Name = ../refined-set-2016/3uw5/3uw5_pocket.pdb
REMARK  120 active torsions:
REMARK  status: ('A' for Active; 'I' for Inactive)
REMARK    1  A    between atoms: _1  and  _3
REMARK    2  A    between atoms: _3  and  _4
REMARK    3  A    between atoms: _3  and  _6
REMARK    4  A    between atoms: _9  and  _11
REMARK    5  A    between atoms: _11  and  _12
REMARK    6  A    between atoms: _11  and  _14
REMARK    7  A    between atoms: _14  and  _15
REMARK    8  A    between atoms: _18  and  _20
REMARK    9  A    between atoms: _20  and  _21
REMARK   10  A    between atoms: _20  and  _23
REMARK   11  A    between atoms: _23  and  _24
REMARK   12  A    between atoms: _30  and  _32
REMARK   13  A    between atoms: _32  and  _33
REMARK   14  A    between atoms: _32  and  _35
REMARK   15  A    between atoms: _35  and  _36
REMARK   16  A    between atoms: _42  and  _44
REMARK   17  A    between atoms: _44  and  _45
REMARK   18  A    between atoms: _44  and  _47
REMARK   19  A    between atoms: _47  and  _48
REMARK   20  A    between atoms: _53  and  _55
REMARK   21  A    between atoms: _55  and  _56
REMARK   22  A    between atoms: _55  and  _58
REMARK   23  A    between atoms: _58  and  _59
REMARK   24  A    between atoms: _62  and  _64
REMARK   25  A    between atoms: _64  and  _65
REMARK   26  A    between atoms: _67  and  _69
REMARK   27  A    between atoms: _69  and  _70
REMARK   28  A    between atoms: _69  and  _72
REMARK   29  A    between atoms: _72  and  _73
REMARK   30  A    between atoms: _76  and  _78
REMARK   31  A    between atoms: _78  and  _79
REMARK   32  A    between atoms: _78  and  _81
REMARK   33  A    between atoms: _81  and  _82
REMARK   34  A    between atoms: _82  and  _83
REMARK   35  A    between atoms: _83  and  _84
REMARK   36  A    between atoms: _84  and  _85
REMARK   37  A    between atoms: _89  and  _91
REMARK   38  A    between atoms: _91  and  _92
REMARK   39  A    between atoms: _91  and  _94
REMARK   40  A    between atoms: _97  and  _99
REMARK   41  A    between atoms: _99  and  _100
REMARK   42  A    between atoms: _99  and  _102
REMARK   43  A    between atoms: _102  and  _103
REMARK   44  A    between atoms: _103  and  _104
REMARK   45  A    between atoms: _104  and  _105
REMARK   46  A    between atoms: _114  and  _116
REMARK   47  A    between atoms: _116  and  _117
REMARK   48  A    between atoms: _116  and  _119
REMARK   49  A    between atoms: _121  and  _123
REMARK   50  A    between atoms: _123  and  _124
REMARK   51  A    between atoms: _123  and  _126
REMARK   52  A    between atoms: _126  and  _127
REMARK   53  A    between atoms: _132  and  _133
REMARK   54  A    between atoms: _135  and  _137
REMARK   55  A    between atoms: _137  and  _138
REMARK   56  A    between atoms: _140  and  _142
REMARK   57  A    between atoms: _142  and  _143
REMARK   58  A    between atoms: _145  and  _147
REMARK   59  A    between atoms: _147  and  _148
REMARK   60  A    between atoms: _147  and  _150
REMARK   61  A    between atoms: _150  and  _151
REMARK   62  A    between atoms: _154  and  _156
REMARK   63  A    between atoms: _156  and  _157
REMARK   64  A    between atoms: _156  and  _159
REMARK   65  A    between atoms: _159  and  _160
REMARK   66  A    between atoms: _160  and  _161
REMARK   67  A    between atoms: _166  and  _168
REMARK   68  A    between atoms: _168  and  _169
REMARK   69  A    between atoms: _168  and  _171
REMARK   70  A    between atoms: _171  and  _172
REMARK   71  A    between atoms: _174  and  _176
REMARK   72  A    between atoms: _176  and  _177
REMARK   73  A    between atoms: _176  and  _179
REMARK   74  A    between atoms: _179  and  _180
REMARK   75  A    between atoms: _190  and  _192
REMARK   76  A    between atoms: _192  and  _193
REMARK   77  A    between atoms: _192  and  _195
REMARK   78  A    between atoms: _195  and  _196
REMARK   79  A    between atoms: _196  and  _197
REMARK   80  A    between atoms: _197  and  _198
REMARK   81  A    between atoms: _198  and  _199
REMARK   82  A    between atoms: _203  and  _205
REMARK   83  A    between atoms: _205  and  _206
REMARK   84  A    between atoms: _205  and  _208
REMARK   85  A    between atoms: _208  and  _209
REMARK   86  A    between atoms: _209  and  _210
REMARK   87  A    between atoms: _210  and  _211
REMARK   88  A    between atoms: _220  and  _222
REMARK   89  A    between atoms: _222  and  _223
REMARK   90  A    between atoms: _222  and  _225
REMARK   91  A    between atoms: _225  and  _226
REMARK   92  A    between atoms: _229  and  _231
REMARK   93  A    between atoms: _231  and  _232
REMARK   94  A    between atoms: _231  and  _234
REMARK   95  A    between atoms: _234  and  _235
REMARK   96  A    between atoms: _239  and  _240
REMARK   97  A    between atoms: _245  and  _247
REMARK   98  A    between atoms: _247  and  _248
REMARK   99  A    between atoms: _247  and  _250
REMARK  100  A    between atoms: _250  and  _251
REMARK  101  A    between atoms: _251  and  _252
REMARK  102  A    between atoms: _255  and  _257
REMARK  103  A    between atoms: _257  and  _258
REMARK  104  A    between atoms: _257  and  _260
REMARK  105  A    between atoms: _260  and  _261
REMARK  106  A    between atoms: _266  and  _268
REMARK  107  A    between atoms: _268  and  _269
REMARK  108  A    between atoms: _268  and  _271
REMARK  109  A    between atoms: _271  and  _272
REMARK  110  A    between atoms: _272  and  _273
REMARK  111  A    between atoms: _273  and  _274
REMARK  112  A    between atoms: _274  and  _275
REMARK  113  A    between atoms: _279  and  _281
REMARK  114  A    between atoms: _281  and  _282
REMARK  115  A    between atoms: _281  and  _284
REMARK  116  A    between atoms: _284  and  _285
REMARK  117  A    between atoms: _295  and  _297
REMARK  118  A    between atoms: _297  and  _298
REMARK  119  A    between atoms: _297  and  _300
REMARK  120  A    between atoms: _300  and  _301
REMARK                            x       y       z     vdW  Elec       q    Type
REMARK                         _______ _______ _______ _____ _____    ______ ____
ROOT
ATOM      1  CA  TRP A   2      83.919  68.962  11.738  0.00  0.00    +0.153 C 
ENDROOT
BRANCH   1   3
ATOM      2  C   LYS A   1      86.221  69.205  10.954  0.00  0.00    +0.238 C 
ATOM      3  N   TRP A   2      85.363  69.037  11.956  0.00  0.00    -0.297 N 
ATOM      4  H   TRP A   2      85.731  68.956  12.925  0.00  0.00    +0.150 HD
ATOM      5  O   LYS A   1      85.873  69.500   9.808  0.00  0.00    -0.274 OA
BRANCH   2   6
ATOM      6  CA  LYS A   1      87.701  69.034  11.292  0.00  0.00    +0.145 C 
BRANCH   6   7
ATOM      7  N   LYS A   1      88.066  69.754  12.506  0.00  0.00    -0.238 NA
ATOM      8  H   LYS A   1      88.397  69.213  13.330  0.00  0.00    +0.142 HD
ENDBRANCH   6   7
BRANCH   6   9
ATOM      9  CB  LYS A   1      88.027  67.543  11.450  0.00  0.00    +0.026 C 
BRANCH   9  10
ATOM     10  CG  LYS A   1      87.736  66.696  10.220  0.00  0.00    -0.000 C 
BRANCH  10  11
ATOM     11  CD  LYS A   1      88.217  65.261  10.394  0.00  0.00    -0.024 C 
BRANCH  11  12
ATOM     12  CE  LYS A   1      87.945  64.438   9.142  0.00  0.00    -0.086 C 
BRANCH  12  13
ATOM     13  NZ  LYS A   1      88.393  63.023   9.278  0.00  0.00    +0.380 N 
ATOM     14  HZ1 LYS A   1      87.889  62.576  10.071  0.00  0.00    -0.089 HD
ATOM     15  HZ2 LYS A   1      89.417  63.001   9.459  0.00  0.00    -0.089 HD
ATOM     16  HZ3 LYS A   1      88.184  62.509   8.399  0.00  0.00    -0.089 HD
ENDBRANCH  12  13
ENDBRANCH  11  12
ENDBRANCH  10  11
ENDBRANCH   9  10
ENDBRANCH   6   9
ENDBRANCH   2   6
ENDBRANCH   1   3
BRANCH   1  17
ATOM     17  C   TRP A   2      83.189  70.259  11.965  0.00  0.00    +0.241 C 
ATOM     18  N   PHE A   3      83.683  71.086  12.886  0.00  0.00    -0.298 N 
ATOM     19  H   PHE A   3      84.568  70.832  13.370  0.00  0.00    +0.150 HD
ATOM     20  O   TRP A   2      82.175  70.516  11.311  0.00  0.00    -0.273 OA
BRANCH  18  21
ATOM     21  CA  PHE A   3      83.014  72.344  13.237  0.00  0.00    +0.141 C 
BRANCH  21  22
ATOM     22  C   PHE A   3      83.983  73.528  13.194  0.00  0.00    +0.227 C 
ATOM     23  O   PHE A   3      84.157  74.237  14.184  0.00  0.00    -0.286 OA
ENDBRANCH  21  22
BRANCH  21  24
ATOM     24  CB  PHE A   3      82.351  72.230  14.613  0.00  0.00    +0.054 C 
BRANCH  24  25
ATOM     25  CG  PHE A   3      81.627  70.932  14.830  0.00  0.00    -0.020 A 
ATOM     26  CD2 PHE A   3      82.074  70.028  15.781  0.00  0.00    -0.004 A 
ATOM     27  CE2 PHE A   3      81.415  68.829  15.986  0.00  0.00    -0.000 A 
ATOM     28  CZ  PHE A   3      80.298  68.516  15.236  0.00  0.00    -0.000 A 
ATOM     29  CE1 PHE A   3      79.839  69.407  14.282  0.00  0.00    -0.000 A 
ATOM     30  CD1 PHE A   3      80.502  70.610  14.082  0.00  0.00    -0.004 A 
ENDBRANCH  24  25
ENDBRANCH  21  24
ENDBRANCH  18  21
ENDBRANCH   1  17
BRANCH   1  31
ATOM     31  CB  TRP A   2      83.320  67.870  12.611  0.00  0.00    +0.057 C 
BRANCH  31  32
ATOM     32  CG  TRP A   2      83.832  66.491  12.267  0.00  0.00    -0.002 A 
ATOM     33  CD1 TRP A   2      84.641  65.664  13.045  0.00  0.00    +0.068 A 
ATOM     34  NE1 TRP A   2      84.904  64.486  12.394  0.00  0.00    -0.352 N 
ATOM     35  HE1 TRP A   2      85.486  63.715  12.780  0.00  0.00    +0.166 HD
ATOM     36  CE2 TRP A   2      84.304  64.463  11.183  0.00  0.00    +0.056 A 
ATOM     37  CZ2 TRP A   2      84.289  63.490  10.195  0.00  0.00    +0.017 A 
ATOM     38  CH2 TRP A   2      83.566  63.771   9.036  0.00  0.00    +0.001 A 
ATOM     39  CZ3 TRP A   2      82.878  64.982   8.869  0.00  0.00    +0.000 A 
ATOM     40  CE3 TRP A   2      82.884  65.972   9.858  0.00  0.00    +0.001 A 
ATOM     41  CD2 TRP A   2      83.594  65.734  11.029  0.00  0.00    +0.013 A 
ENDBRANCH  31  32
ENDBRANCH   1  31
TORSDOF 15
REMARK  Name = ../refined-set-2016/3uw5/3uw5_pocket.pdb
REMARK  120 active torsions:
REMARK  status: ('A' for Active; 'I' for Inactive)
REMARK    1  A    between atoms: _1  and  _3
REMARK    2  A    between atoms: _3  and  _4
REMARK    3  A    between atoms: _3  and  _6
REMARK    4  A    between atoms: _9  and  _11
REMARK    5  A    between atoms: _11  and  _12
REMARK    6  A    between atoms: _11  and  _14
REMARK    7  A    between atoms: _14  and  _15
REMARK    8  A    between atoms: _18  and  _20
REMARK    9  A    between atoms: _20  and  _21
REMARK   10  A    between atoms: _20  and  _23
REMARK   11  A    between atoms: _23  and  _24
REMARK   12  A    between atoms: _30  and  _32
REMARK   13  A    between atoms: _32  and  _33
REMARK   14  A    between atoms: _32  and  _35
REMARK   15  A    between atoms: _35  and  _36
REMARK   16  A    between atoms: _42  and  _44
REMARK   17  A    between atoms: _44  and  _45
REMARK   18  A    between atoms: _44  and  _47
REMARK   19  A    between atoms: _47  and  _48
REMARK   20  A    between atoms: _53  and  _55
REMARK   21  A    between atoms: _55  and  _56
REMARK   22  A    between atoms: _55  and  _58
REMARK   23  A    between atoms: _58  and  _59
REMARK   24  A    between atoms: _62  and  _64
REMARK   25  A    between atoms: _64  and  _65
REMARK   26  A    between atoms: _67  and  _69
REMARK   27  A    between atoms: _69  and  _70
REMARK   28  A    between atoms: _69  and  _72
REMARK   29  A    between atoms: _72  and  _73
REMARK   30  A    between atoms: _76  and  _78
REMARK   31  A    between atoms: _78  and  _79
REMARK   32  A    between atoms: _78  and  _81
REMARK   33  A    between atoms: _81  and  _82
REMARK   34  A    between atoms: _82  and  _83
REMARK   35  A    between atoms: _83  and  _84
REMARK   36  A    between atoms: _84  and  _85
REMARK   37  A    between atoms: _89  and  _91
REMARK   38  A    between atoms: _91  and  _92
REMARK   39  A    between atoms: _91  and  _94
REMARK   40  A    between atoms: _97  and  _99
REMARK   41  A    between atoms: _99  and  _100
REMARK   42  A    between atoms: _99  and  _102
REMARK   43  A    between atoms: _102  and  _103
REMARK   44  A    between atoms: _103  and  _104
REMARK   45  A    between atoms: _104  and  _105
REMARK   46  A    between atoms: _114  and  _116
REMARK   47  A    between atoms: _116  and  _117
REMARK   48  A    between atoms: _116  and  _119
REMARK   49  A    between atoms: _121  and  _123
REMARK   50  A    between atoms: _123  and  _124
REMARK   51  A    between atoms: _123  and  _126
REMARK   52  A    between atoms: _126  and  _127
REMARK   53  A    between atoms: _132  and  _133
REMARK   54  A    between atoms: _135  and  _137
REMARK   55  A    between atoms: _137  and  _138
REMARK   56  A    between atoms: _140  and  _142
REMARK   57  A    between atoms: _142  and  _143
REMARK   58  A    between atoms: _145  and  _147
REMARK   59  A    between atoms: _147  and  _148
REMARK   60  A    between atoms: _147  and  _150
REMARK   61  A    between atoms: _150  and  _151
REMARK   62  A    between atoms: _154  and  _156
REMARK   63  A    between atoms: _156  and  _157
REMARK   64  A    between atoms: _156  and  _159
REMARK   65  A    between atoms: _159  and  _160
REMARK   66  A    between atoms: _160  and  _161
REMARK   67  A    between atoms: _166  and  _168
REMARK   68  A    between atoms: _168  and  _169
REMARK   69  A    between atoms: _168  and  _171
REMARK   70  A    between atoms: _171  and  _172
REMARK   71  A    between atoms: _174  and  _176
REMARK   72  A    between atoms: _176  and  _177
REMARK   73  A    between atoms: _176  and  _179
REMARK   74  A    between atoms: _179  and  _180
REMARK   75  A    between atoms: _190  and  _192
REMARK   76  A    between atoms: _192  and  _193
REMARK   77  A    between atoms: _192  and  _195
REMARK   78  A    between atoms: _195  and  _196
REMARK   79  A    between atoms: _196  and  _197
REMARK   80  A    between atoms: _197  and  _198
REMARK   81  A    between atoms: _198  and  _199
REMARK   82  A    between atoms: _203  and  _205
REMARK   83  A    between atoms: _205  and  _206
REMARK   84  A    between atoms: _205  and  _208
REMARK   85  A    between atoms: _208  and  _209
REMARK   86  A    between atoms: _209  and  _210
REMARK   87  A    between atoms: _210  and  _211
REMARK   88  A    between atoms: _220  and  _222
REMARK   89  A    between atoms: _222  and  _223
REMARK   90  A    between atoms: _222  and  _225
REMARK   91  A    between atoms: _225  and  _226
REMARK   92  A    between atoms: _229  and  _231
REMARK   93  A    between atoms: _231  and  _232
REMARK   94  A    between atoms: _231  and  _234
REMARK   95  A    between atoms: _234  and  _235
REMARK   96  A    between atoms: _239  and  _240
REMARK   97  A    between atoms: _245  and  _247
REMARK   98  A    between atoms: _247  and  _248
REMARK   99  A    between atoms: _247  and  _250
REMARK  100  A    between atoms: _250  and  _251
REMARK  101  A    between atoms: _251  and  _252
REMARK  102  A    between atoms: _255  and  _257
REMARK  103  A    between atoms: _257  and  _258
REMARK  104  A    between atoms: _257  and  _260
REMARK  105  A    between atoms: _260  and  _261
REMARK  106  A    between atoms: _266  and  _268
REMARK  107  A    between atoms: _268  and  _269
REMARK  108  A    between atoms: _268  and  _271
REMARK  109  A    between atoms: _271  and  _272
REMARK  110  A    between atoms: _272  and  _273
REMARK  111  A    between atoms: _273  and  _274
REMARK  112  A    between atoms: _274  and  _275
REMARK  113  A    between atoms: _279  and  _281
REMARK  114  A    between atoms: _281  and  _282
REMARK  115  A    between atoms: _281  and  _284
REMARK  116  A    between atoms: _284  and  _285
REMARK  117  A    between atoms: _295  and  _297
REMARK  118  A    between atoms: _297  and  _298
REMARK  119  A    between atoms: _297  and  _300
REMARK  120  A    between atoms: _300  and  _301
REMARK                            x       y       z     vdW  Elec       q    Type
REMARK                         _______ _______ _______ _____ _____    ______ ____
ROOT
ATOM      1  O   HOH     1      73.531  57.542  23.381  0.00  0.00    +0.000 OA
ENDROOT
TORSDOF 0
REMARK  Name = ../refined-set-2016/3uw5/3uw5_pocket.pdb
REMARK  120 active torsions:
REMARK  status: ('A' for Active; 'I' for Inactive)
REMARK    1  A    between atoms: _1  and  _3
REMARK    2  A    between atoms: _3  and  _4
REMARK    3  A    between atoms: _3  and  _6
REMARK    4  A    between atoms: _9  and  _11
REMARK    5  A    between atoms: _11  and  _12
REMARK    6  A    between atoms: _11  and  _14
REMARK    7  A    between atoms: _14  and  _15
REMARK    8  A    between atoms: _18  and  _20
REMARK    9  A    between atoms: _20  and  _21
REMARK   10  A    between atoms: _20  and  _23
REMARK   11  A    between atoms: _23  and  _24
REMARK   12  A    between atoms: _30  and  _32
REMARK   13  A    between atoms: _32  and  _33
REMARK   14  A    between atoms: _32  and  _35
REMARK   15  A    between atoms: _35  and  _36
REMARK   16  A    between atoms: _42  and  _44
REMARK   17  A    between atoms: _44  and  _45
REMARK   18  A    between atoms: _44  and  _47
REMARK   19  A    between atoms: _47  and  _48
REMARK   20  A    between atoms: _53  and  _55
REMARK   21  A    between atoms: _55  and  _56
REMARK   22  A    between atoms: _55  and  _58
REMARK   23  A    between atoms: _58  and  _59
REMARK   24  A    between atoms: _62  and  _64
REMARK   25  A    between atoms: _64  and  _65
REMARK   26  A    between atoms: _67  and  _69
REMARK   27  A    between atoms: _69  and  _70
REMARK   28  A    between atoms: _69  and  _72
REMARK   29  A    between atoms: _72  and  _73
REMARK   30  A    between atoms: _76  and  _78
REMARK   31  A    between atoms: _78  and  _79
REMARK   32  A    between atoms: _78  and  _81
REMARK   33  A    between atoms: _81  and  _82
REMARK   34  A    between atoms: _82  and  _83
REMARK   35  A    between atoms: _83  and  _84
REMARK   36  A    between atoms: _84  and  _85
REMARK   37  A    between atoms: _89  and  _91
REMARK   38  A    between atoms: _91  and  _92
REMARK   39  A    between atoms: _91  and  _94
REMARK   40  A    between atoms: _97  and  _99
REMARK   41  A    between atoms: _99  and  _100
REMARK   42  A    between atoms: _99  and  _102
REMARK   43  A    between atoms: _102  and  _103
REMARK   44  A    between atoms: _103  and  _104
REMARK   45  A    between atoms: _104  and  _105
REMARK   46  A    between atoms: _114  and  _116
REMARK   47  A    between atoms: _116  and  _117
REMARK   48  A    between atoms: _116  and  _119
REMARK   49  A    between atoms: _121  and  _123
REMARK   50  A    between atoms: _123  and  _124
REMARK   51  A    between atoms: _123  and  _126
REMARK   52  A    between atoms: _126  and  _127
REMARK   53  A    between atoms: _132  and  _133
REMARK   54  A    between atoms: _135  and  _137
REMARK   55  A    between atoms: _137  and  _138
REMARK   56  A    between atoms: _140  and  _142
REMARK   57  A    between atoms: _142  and  _143
REMARK   58  A    between atoms: _145  and  _147
REMARK   59  A    between atoms: _147  and  _148
REMARK   60  A    between atoms: _147  and  _150
REMARK   61  A    between atoms: _150  and  _151
REMARK   62  A    between atoms: _154  and  _156
REMARK   63  A    between atoms: _156  and  _157
REMARK   64  A    between atoms: _156  and  _159
REMARK   65  A    between atoms: _159  and  _160
REMARK   66  A    between atoms: _160  and  _161
REMARK   67  A    between atoms: _166  and  _168
REMARK   68  A    between atoms: _168  and  _169
REMARK   69  A    between atoms: _168  and  _171
REMARK   70  A    between atoms: _171  and  _172
REMARK   71  A    between atoms: _174  and  _176
REMARK   72  A    between atoms: _176  and  _177
REMARK   73  A    between atoms: _176  and  _179
REMARK   74  A    between atoms: _179  and  _180
REMARK   75  A    between atoms: _190  and  _192
REMARK   76  A    between atoms: _192  and  _193
REMARK   77  A    between atoms: _192  and  _195
REMARK   78  A    between atoms: _195  and  _196
REMARK   79  A    between atoms: _196  and  _197
REMARK   80  A    between atoms: _197  and  _198
REMARK   81  A    between atoms: _198  and  _199
REMARK   82  A    between atoms: _203  and  _205
REMARK   83  A    between atoms: _205  and  _206
REMARK   84  A    between atoms: _205  and  _208
REMARK   85  A    between atoms: _208  and  _209
REMARK   86  A    between atoms: _209  and  _210
REMARK   87  A    between atoms: _210  and  _211
REMARK   88  A    between atoms: _220  and  _222
REMARK   89  A    between atoms: _222  and  _223
REMARK   90  A    between atoms: _222  and  _225
REMARK   91  A    between atoms: _225  and  _226
REMARK   92  A    between atoms: _229  and  _231
REMARK   93  A    between atoms: _231  and  _232
REMARK   94  A    between atoms: _231  and  _234
REMARK   95  A    between atoms: _234  and  _235
REMARK   96  A    between atoms: _239  and  _240
REMARK   97  A    between atoms: _245  and  _247
REMARK   98  A    between atoms: _247  and  _248
REMARK   99  A    between atoms: _247  and  _250
REMARK  100  A    between atoms: _250  and  _251
REMARK  101  A    between atoms: _251  and  _252
REMARK  102  A    between atoms: _255  and  _257
REMARK  103  A    between atoms: _257  and  _258
REMARK  104  A    between atoms: _257  and  _260
REMARK  105  A    between atoms: _260  and  _261
REMARK  106  A    between atoms: _266  and  _268
REMARK  107  A    between atoms: _268  and  _269
REMARK  108  A    between atoms: _268  and  _271
REMARK  109  A    between atoms: _271  and  _272
REMARK  110  A    between atoms: _272  and  _273
REMARK  111  A    between atoms: _273  and  _274
REMARK  112  A    between atoms: _274  and  _275
REMARK  113  A    between atoms: _279  and  _281
REMARK  114  A    between atoms: _281  and  _282
REMARK  115  A    between atoms: _281  and  _284
REMARK  116  A    between atoms: _284  and  _285
REMARK  117  A    between atoms: _295  and  _297
REMARK  118  A    between atoms: _297  and  _298
REMARK  119  A    between atoms: _297  and  _300
REMARK  120  A    between atoms: _300  and  _301
REMARK                            x       y       z     vdW  Elec       q    Type
REMARK                         _______ _______ _______ _____ _____    ______ ____
ROOT
ATOM      1  O   HOH     1      84.223  56.390  13.294  0.00  0.00    +0.000 OA
ENDROOT
TORSDOF 0
REMARK  Name = ../refined-set-2016/3uw5/3uw5_pocket.pdb
REMARK  120 active torsions:
REMARK  status: ('A' for Active; 'I' for Inactive)
REMARK    1  A    between atoms: _1  and  _3
REMARK    2  A    between atoms: _3  and  _4
REMARK    3  A    between atoms: _3  and  _6
REMARK    4  A    between atoms: _9  and  _11
REMARK    5  A    between atoms: _11  and  _12
REMARK    6  A    between atoms: _11  and  _14
REMARK    7  A    between atoms: _14  and  _15
REMARK    8  A    between atoms: _18  and  _20
REMARK    9  A    between atoms: _20  and  _21
REMARK   10  A    between atoms: _20  and  _23
REMARK   11  A    between atoms: _23  and  _24
REMARK   12  A    between atoms: _30  and  _32
REMARK   13  A    between atoms: _32  and  _33
REMARK   14  A    between atoms: _32  and  _35
REMARK   15  A    between atoms: _35  and  _36
REMARK   16  A    between atoms: _42  and  _44
REMARK   17  A    between atoms: _44  and  _45
REMARK   18  A    between atoms: _44  and  _47
REMARK   19  A    between atoms: _47  and  _48
REMARK   20  A    between atoms: _53  and  _55
REMARK   21  A    between atoms: _55  and  _56
REMARK   22  A    between atoms: _55  and  _58
REMARK   23  A    between atoms: _58  and  _59
REMARK   24  A    between atoms: _62  and  _64
REMARK   25  A    between atoms: _64  and  _65
REMARK   26  A    between atoms: _67  and  _69
REMARK   27  A    between atoms: _69  and  _70
REMARK   28  A    between atoms: _69  and  _72
REMARK   29  A    between atoms: _72  and  _73
REMARK   30  A    between atoms: _76  and  _78
REMARK   31  A    between atoms: _78  and  _79
REMARK   32  A    between atoms: _78  and  _81
REMARK   33  A    between atoms: _81  and  _82
REMARK   34  A    between atoms: _82  and  _83
REMARK   35  A    between atoms: _83  and  _84
REMARK   36  A    between atoms: _84  and  _85
REMARK   37  A    between atoms: _89  and  _91
REMARK   38  A    between atoms: _91  and  _92
REMARK   39  A    between atoms: _91  and  _94
REMARK   40  A    between atoms: _97  and  _99
REMARK   41  A    between atoms: _99  and  _100
REMARK   42  A    between atoms: _99  and  _102
REMARK   43  A    between atoms: _102  and  _103
REMARK   44  A    between atoms: _103  and  _104
REMARK   45  A    between atoms: _104  and  _105
REMARK   46  A    between atoms: _114  and  _116
REMARK   47  A    between atoms: _116  and  _117
REMARK   48  A    between atoms: _116  and  _119
REMARK   49  A    between atoms: _121  and  _123
REMARK   50  A    between atoms: _123  and  _124
REMARK   51  A    between atoms: _123  and  _126
REMARK   52  A    between atoms: _126  and  _127
REMARK   53  A    between atoms: _132  and  _133
REMARK   54  A    between atoms: _135  and  _137
REMARK   55  A    between atoms: _137  and  _138
REMARK   56  A    between atoms: _140  and  _142
REMARK   57  A    between atoms: _142  and  _143
REMARK   58  A    between atoms: _145  and  _147
REMARK   59  A    between atoms: _147  and  _148
REMARK   60  A    between atoms: _147  and  _150
REMARK   61  A    between atoms: _150  and  _151
REMARK   62  A    between atoms: _154  and  _156
REMARK   63  A    between atoms: _156  and  _157
REMARK   64  A    between atoms: _156  and  _159
REMARK   65  A    between atoms: _159  and  _160
REMARK   66  A    between atoms: _160  and  _161
REMARK   67  A    between atoms: _166  and  _168
REMARK   68  A    between atoms: _168  and  _169
REMARK   69  A    between atoms: _168  and  _171
REMARK   70  A    between atoms: _171  and  _172
REMARK   71  A    between atoms: _174  and  _176
REMARK   72  A    between atoms: _176  and  _177
REMARK   73  A    between atoms: _176  and  _179
REMARK   74  A    between atoms: _179  and  _180
REMARK   75  A    between atoms: _190  and  _192
REMARK   76  A    between atoms: _192  and  _193
REMARK   77  A    between atoms: _192  and  _195
REMARK   78  A    between atoms: _195  and  _196
REMARK   79  A    between atoms: _196  and  _197
REMARK   80  A    between atoms: _197  and  _198
REMARK   81  A    between atoms: _198  and  _199
REMARK   82  A    between atoms: _203  and  _205
REMARK   83  A    between atoms: _205  and  _206
REMARK   84  A    between atoms: _205  and  _208
REMARK   85  A    between atoms: _208  and  _209
REMARK   86  A    between atoms: _209  and  _210
REMARK   87  A    between atoms: _210  and  _211
REMARK   88  A    between atoms: _220  and  _222
REMARK   89  A    between atoms: _222  and  _223
REMARK   90  A    between atoms: _222  and  _225
REMARK   91  A    between atoms: _225  and  _226
REMARK   92  A    between atoms: _229  and  _231
REMARK   93  A    between atoms: _231  and  _232
REMARK   94  A    between atoms: _231  and  _234
REMARK   95  A    between atoms: _234  and  _235
REMARK   96  A    between atoms: _239  and  _240
REMARK   97  A    between atoms: _245  and  _247
REMARK   98  A    between atoms: _247  and  _248
REMARK   99  A    between atoms: _247  and  _250
REMARK  100  A    between atoms: _250  and  _251
REMARK  101  A    between atoms: _251  and  _252
REMARK  102  A    between atoms: _255  and  _257
REMARK  103  A    between atoms: _257  and  _258
REMARK  104  A    between atoms: _257  and  _260
REMARK  105  A    between atoms: _260  and  _261
REMARK  106  A    between atoms: _266  and  _268
REMARK  107  A    between atoms: _268  and  _269
REMARK  108  A    between atoms: _268  and  _271
REMARK  109  A    between atoms: _271  and  _272
REMARK  110  A    between atoms: _272  and  _273
REMARK  111  A    between atoms: _273  and  _274
REMARK  112  A    between atoms: _274  and  _275
REMARK  113  A    between atoms: _279  and  _281
REMARK  114  A    between atoms: _281  and  _282
REMARK  115  A    between atoms: _281  and  _284
REMARK  116  A    between atoms: _284  and  _285
REMARK  117  A    between atoms: _295  and  _297
REMARK  118  A    between atoms: _297  and  _298
REMARK  119  A    between atoms: _297  and  _300
REMARK  120  A    between atoms: _300  and  _301
REMARK                            x       y       z     vdW  Elec       q    Type
REMARK                         _______ _______ _______ _____ _____    ______ ____
ROOT
ATOM      1  O   HOH     1      87.845  61.755  11.857  0.00  0.00    +0.000 OA
ENDROOT
TORSDOF 0
REMARK  Name = ../refined-set-2016/3uw5/3uw5_pocket.pdb
REMARK  120 active torsions:
REMARK  status: ('A' for Active; 'I' for Inactive)
REMARK    1  A    between atoms: _1  and  _3
REMARK    2  A    between atoms: _3  and  _4
REMARK    3  A    between atoms: _3  and  _6
REMARK    4  A    between atoms: _9  and  _11
REMARK    5  A    between atoms: _11  and  _12
REMARK    6  A    between atoms: _11  and  _14
REMARK    7  A    between atoms: _14  and  _15
REMARK    8  A    between atoms: _18  and  _20
REMARK    9  A    between atoms: _20  and  _21
REMARK   10  A    between atoms: _20  and  _23
REMARK   11  A    between atoms: _23  and  _24
REMARK   12  A    between atoms: _30  and  _32
REMARK   13  A    between atoms: _32  and  _33
REMARK   14  A    between atoms: _32  and  _35
REMARK   15  A    between atoms: _35  and  _36
REMARK   16  A    between atoms: _42  and  _44
REMARK   17  A    between atoms: _44  and  _45
REMARK   18  A    between atoms: _44  and  _47
REMARK   19  A    between atoms: _47  and  _48
REMARK   20  A    between atoms: _53  and  _55
REMARK   21  A    between atoms: _55  and  _56
REMARK   22  A    between atoms: _55  and  _58
REMARK   23  A    between atoms: _58  and  _59
REMARK   24  A    between atoms: _62  and  _64
REMARK   25  A    between atoms: _64  and  _65
REMARK   26  A    between atoms: _67  and  _69
REMARK   27  A    between atoms: _69  and  _70
REMARK   28  A    between atoms: _69  and  _72
REMARK   29  A    between atoms: _72  and  _73
REMARK   30  A    between atoms: _76  and  _78
REMARK   31  A    between atoms: _78  and  _79
REMARK   32  A    between atoms: _78  and  _81
REMARK   33  A    between atoms: _81  and  _82
REMARK   34  A    between atoms: _82  and  _83
REMARK   35  A    between atoms: _83  and  _84
REMARK   36  A    between atoms: _84  and  _85
REMARK   37  A    between atoms: _89  and  _91
REMARK   38  A    between atoms: _91  and  _92
REMARK   39  A    between atoms: _91  and  _94
REMARK   40  A    between atoms: _97  and  _99
REMARK   41  A    between atoms: _99  and  _100
REMARK   42  A    between atoms: _99  and  _102
REMARK   43  A    between atoms: _102  and  _103
REMARK   44  A    between atoms: _103  and  _104
REMARK   45  A    between atoms: _104  and  _105
REMARK   46  A    between atoms: _114  and  _116
REMARK   47  A    between atoms: _116  and  _117
REMARK   48  A    between atoms: _116  and  _119
REMARK   49  A    between atoms: _121  and  _123
REMARK   50  A    between atoms: _123  and  _124
REMARK   51  A    between atoms: _123  and  _126
REMARK   52  A    between atoms: _126  and  _127
REMARK   53  A    between atoms: _132  and  _133
REMARK   54  A    between atoms: _135  and  _137
REMARK   55  A    between atoms: _137  and  _138
REMARK   56  A    between atoms: _140  and  _142
REMARK   57  A    between atoms: _142  and  _143
REMARK   58  A    between atoms: _145  and  _147
REMARK   59  A    between atoms: _147  and  _148
REMARK   60  A    between atoms: _147  and  _150
REMARK   61  A    between atoms: _150  and  _151
REMARK   62  A    between atoms: _154  and  _156
REMARK   63  A    between atoms: _156  and  _157
REMARK   64  A    between atoms: _156  and  _159
REMARK   65  A    between atoms: _159  and  _160
REMARK   66  A    between atoms: _160  and  _161
REMARK   67  A    between atoms: _166  and  _168
REMARK   68  A    between atoms: _168  and  _169
REMARK   69  A    between atoms: _168  and  _171
REMARK   70  A    between atoms: _171  and  _172
REMARK   71  A    between atoms: _174  and  _176
REMARK   72  A    between atoms: _176  and  _177
REMARK   73  A    between atoms: _176  and  _179
REMARK   74  A    between atoms: _179  and  _180
REMARK   75  A    between atoms: _190  and  _192
REMARK   76  A    between atoms: _192  and  _193
REMARK   77  A    between atoms: _192  and  _195
REMARK   78  A    between atoms: _195  and  _196
REMARK   79  A    between atoms: _196  and  _197
REMARK   80  A    between atoms: _197  and  _198
REMARK   81  A    between atoms: _198  and  _199
REMARK   82  A    between atoms: _203  and  _205
REMARK   83  A    between atoms: _205  and  _206
REMARK   84  A    between atoms: _205  and  _208
REMARK   85  A    between atoms: _208  and  _209
REMARK   86  A    between atoms: _209  and  _210
REMARK   87  A    between atoms: _210  and  _211
REMARK   88  A    between atoms: _220  and  _222
REMARK   89  A    between atoms: _222  and  _223
REMARK   90  A    between atoms: _222  and  _225
REMARK   91  A    between atoms: _225  and  _226
REMARK   92  A    between atoms: _229  and  _231
REMARK   93  A    between atoms: _231  and  _232
REMARK   94  A    between atoms: _231  and  _234
REMARK   95  A    between atoms: _234  and  _235
REMARK   96  A    between atoms: _239  and  _240
REMARK   97  A    between atoms: _245  and  _247
REMARK   98  A    between atoms: _247  and  _248
REMARK   99  A    between atoms: _247  and  _250
REMARK  100  A    between atoms: _250  and  _251
REMARK  101  A    between atoms: _251  and  _252
REMARK  102  A    between atoms: _255  and  _257
REMARK  103  A    between atoms: _257  and  _258
REMARK  104  A    between atoms: _257  and  _260
REMARK  105  A    between atoms: _260  and  _261
REMARK  106  A    between atoms: _266  and  _268
REMARK  107  A    between atoms: _268  and  _269
REMARK  108  A    between atoms: _268  and  _271
REMARK  109  A    between atoms: _271  and  _272
REMARK  110  A    between atoms: _272  and  _273
REMARK  111  A    between atoms: _273  and  _274
REMARK  112  A    between atoms: _274  and  _275
REMARK  113  A    between atoms: _279  and  _281
REMARK  114  A    between atoms: _281  and  _282
REMARK  115  A    between atoms: _281  and  _284
REMARK  116  A    between atoms: _284  and  _285
REMARK  117  A    between atoms: _295  and  _297
REMARK  118  A    between atoms: _297  and  _298
REMARK  119  A    between atoms: _297  and  _300
REMARK  120  A    between atoms: _300  and  _301
REMARK                            x       y       z     vdW  Elec       q    Type
REMARK                         _______ _______ _______ _____ _____    ______ ____
ROOT
ATOM      1  O   HOH     1      91.979  63.038  15.609  0.00  0.00    +0.000 OA
ENDROOT
TORSDOF 0
REMARK  Name = ../refined-set-2016/3uw5/3uw5_pocket.pdb
REMARK  120 active torsions:
REMARK  status: ('A' for Active; 'I' for Inactive)
REMARK    1  A    between atoms: _1  and  _3
REMARK    2  A    between atoms: _3  and  _4
REMARK    3  A    between atoms: _3  and  _6
REMARK    4  A    between atoms: _9  and  _11
REMARK    5  A    between atoms: _11  and  _12
REMARK    6  A    between atoms: _11  and  _14
REMARK    7  A    between atoms: _14  and  _15
REMARK    8  A    between atoms: _18  and  _20
REMARK    9  A    between atoms: _20  and  _21
REMARK   10  A    between atoms: _20  and  _23
REMARK   11  A    between atoms: _23  and  _24
REMARK   12  A    between atoms: _30  and  _32
REMARK   13  A    between atoms: _32  and  _33
REMARK   14  A    between atoms: _32  and  _35
REMARK   15  A    between atoms: _35  and  _36
REMARK   16  A    between atoms: _42  and  _44
REMARK   17  A    between atoms: _44  and  _45
REMARK   18  A    between atoms: _44  and  _47
REMARK   19  A    between atoms: _47  and  _48
REMARK   20  A    between atoms: _53  and  _55
REMARK   21  A    between atoms: _55  and  _56
REMARK   22  A    between atoms: _55  and  _58
REMARK   23  A    between atoms: _58  and  _59
REMARK   24  A    between atoms: _62  and  _64
REMARK   25  A    between atoms: _64  and  _65
REMARK   26  A    between atoms: _67  and  _69
REMARK   27  A    between atoms: _69  and  _70
REMARK   28  A    between atoms: _69  and  _72
REMARK   29  A    between atoms: _72  and  _73
REMARK   30  A    between atoms: _76  and  _78
REMARK   31  A    between atoms: _78  and  _79
REMARK   32  A    between atoms: _78  and  _81
REMARK   33  A    between atoms: _81  and  _82
REMARK   34  A    between atoms: _82  and  _83
REMARK   35  A    between atoms: _83  and  _84
REMARK   36  A    between atoms: _84  and  _85
REMARK   37  A    between atoms: _89  and  _91
REMARK   38  A    between atoms: _91  and  _92
REMARK   39  A    between atoms: _91  and  _94
REMARK   40  A    between atoms: _97  and  _99
REMARK   41  A    between atoms: _99  and  _100
REMARK   42  A    between atoms: _99  and  _102
REMARK   43  A    between atoms: _102  and  _103
REMARK   44  A    between atoms: _103  and  _104
REMARK   45  A    between atoms: _104  and  _105
REMARK   46  A    between atoms: _114  and  _116
REMARK   47  A    between atoms: _116  and  _117
REMARK   48  A    between atoms: _116  and  _119
REMARK   49  A    between atoms: _121  and  _123
REMARK   50  A    between atoms: _123  and  _124
REMARK   51  A    between atoms: _123  and  _126
REMARK   52  A    between atoms: _126  and  _127
REMARK   53  A    between atoms: _132  and  _133
REMARK   54  A    between atoms: _135  and  _137
REMARK   55  A    between atoms: _137  and  _138
REMARK   56  A    between atoms: _140  and  _142
REMARK   57  A    between atoms: _142  and  _143
REMARK   58  A    between atoms: _145  and  _147
REMARK   59  A    between atoms: _147  and  _148
REMARK   60  A    between atoms: _147  and  _150
REMARK   61  A    between atoms: _150  and  _151
REMARK   62  A    between atoms: _154  and  _156
REMARK   63  A    between atoms: _156  and  _157
REMARK   64  A    between atoms: _156  and  _159
REMARK   65  A    between atoms: _159  and  _160
REMARK   66  A    between atoms: _160  and  _161
REMARK   67  A    between atoms: _166  and  _168
REMARK   68  A    between atoms: _168  and  _169
REMARK   69  A    between atoms: _168  and  _171
REMARK   70  A    between atoms: _171  and  _172
REMARK   71  A    between atoms: _174  and  _176
REMARK   72  A    between atoms: _176  and  _177
REMARK   73  A    between atoms: _176  and  _179
REMARK   74  A    between atoms: _179  and  _180
REMARK   75  A    between atoms: _190  and  _192
REMARK   76  A    between atoms: _192  and  _193
REMARK   77  A    between atoms: _192  and  _195
REMARK   78  A    between atoms: _195  and  _196
REMARK   79  A    between atoms: _196  and  _197
REMARK   80  A    between atoms: _197  and  _198
REMARK   81  A    between atoms: _198  and  _199
REMARK   82  A    between atoms: _203  and  _205
REMARK   83  A    between atoms: _205  and  _206
REMARK   84  A    between atoms: _205  and  _208
REMARK   85  A    between atoms: _208  and  _209
REMARK   86  A    between atoms: _209  and  _210
REMARK   87  A    between atoms: _210  and  _211
REMARK   88  A    between atoms: _220  and  _222
REMARK   89  A    between atoms: _222  and  _223
REMARK   90  A    between atoms: _222  and  _225
REMARK   91  A    between atoms: _225  and  _226
REMARK   92  A    between atoms: _229  and  _231
REMARK   93  A    between atoms: _231  and  _232
REMARK   94  A    between atoms: _231  and  _234
REMARK   95  A    between atoms: _234  and  _235
REMARK   96  A    between atoms: _239  and  _240
REMARK   97  A    between atoms: _245  and  _247
REMARK   98  A    between atoms: _247  and  _248
REMARK   99  A    between atoms: _247  and  _250
REMARK  100  A    between atoms: _250  and  _251
REMARK  101  A    between atoms: _251  and  _252
REMARK  102  A    between atoms: _255  and  _257
REMARK  103  A    between atoms: _257  and  _258
REMARK  104  A    between atoms: _257  and  _260
REMARK  105  A    between atoms: _260  and  _261
REMARK  106  A    between atoms: _266  and  _268
REMARK  107  A    between atoms: _268  and  _269
REMARK  108  A    between atoms: _268  and  _271
REMARK  109  A    between atoms: _271  and  _272
REMARK  110  A    between atoms: _272  and  _273
REMARK  111  A    between atoms: _273  and  _274
REMARK  112  A    between atoms: _274  and  _275
REMARK  113  A    between atoms: _279  and  _281
REMARK  114  A    between atoms: _281  and  _282
REMARK  115  A    between atoms: _281  and  _284
REMARK  116  A    between atoms: _284  and  _285
REMARK  117  A    between atoms: _295  and  _297
REMARK  118  A    between atoms: _297  and  _298
REMARK  119  A    between atoms: _297  and  _300
REMARK  120  A    between atoms: _300  and  _301
REMARK                            x       y       z     vdW  Elec       q    Type
REMARK                         _______ _______ _______ _____ _____    ______ ____
ROOT
ATOM      1  O   HOH     1      76.024  68.085  15.345  0.00  0.00    +0.000 OA
ENDROOT
TORSDOF 0
REMARK  Name = ../refined-set-2016/3uw5/3uw5_pocket.pdb
REMARK  120 active torsions:
REMARK  status: ('A' for Active; 'I' for Inactive)
REMARK    1  A    between atoms: _1  and  _3
REMARK    2  A    between atoms: _3  and  _4
REMARK    3  A    between atoms: _3  and  _6
REMARK    4  A    between atoms: _9  and  _11
REMARK    5  A    between atoms: _11  and  _12
REMARK    6  A    between atoms: _11  and  _14
REMARK    7  A    between atoms: _14  and  _15
REMARK    8  A    between atoms: _18  and  _20
REMARK    9  A    between atoms: _20  and  _21
REMARK   10  A    between atoms: _20  and  _23
REMARK   11  A    between atoms: _23  and  _24
REMARK   12  A    between atoms: _30  and  _32
REMARK   13  A    between atoms: _32  and  _33
REMARK   14  A    between atoms: _32  and  _35
REMARK   15  A    between atoms: _35  and  _36
REMARK   16  A    between atoms: _42  and  _44
REMARK   17  A    between atoms: _44  and  _45
REMARK   18  A    between atoms: _44  and  _47
REMARK   19  A    between atoms: _47  and  _48
REMARK   20  A    between atoms: _53  and  _55
REMARK   21  A    between atoms: _55  and  _56
REMARK   22  A    between atoms: _55  and  _58
REMARK   23  A    between atoms: _58  and  _59
REMARK   24  A    between atoms: _62  and  _64
REMARK   25  A    between atoms: _64  and  _65
REMARK   26  A    between atoms: _67  and  _69
REMARK   27  A    between atoms: _69  and  _70
REMARK   28  A    between atoms: _69  and  _72
REMARK   29  A    between atoms: _72  and  _73
REMARK   30  A    between atoms: _76  and  _78
REMARK   31  A    between atoms: _78  and  _79
REMARK   32  A    between atoms: _78  and  _81
REMARK   33  A    between atoms: _81  and  _82
REMARK   34  A    between atoms: _82  and  _83
REMARK   35  A    between atoms: _83  and  _84
REMARK   36  A    between atoms: _84  and  _85
REMARK   37  A    between atoms: _89  and  _91
REMARK   38  A    between atoms: _91  and  _92
REMARK   39  A    between atoms: _91  and  _94
REMARK   40  A    between atoms: _97  and  _99
REMARK   41  A    between atoms: _99  and  _100
REMARK   42  A    between atoms: _99  and  _102
REMARK   43  A    between atoms: _102  and  _103
REMARK   44  A    between atoms: _103  and  _104
REMARK   45  A    between atoms: _104  and  _105
REMARK   46  A    between atoms: _114  and  _116
REMARK   47  A    between atoms: _116  and  _117
REMARK   48  A    between atoms: _116  and  _119
REMARK   49  A    between atoms: _121  and  _123
REMARK   50  A    between atoms: _123  and  _124
REMARK   51  A    between atoms: _123  and  _126
REMARK   52  A    between atoms: _126  and  _127
REMARK   53  A    between atoms: _132  and  _133
REMARK   54  A    between atoms: _135  and  _137
REMARK   55  A    between atoms: _137  and  _138
REMARK   56  A    between atoms: _140  and  _142
REMARK   57  A    between atoms: _142  and  _143
REMARK   58  A    between atoms: _145  and  _147
REMARK   59  A    between atoms: _147  and  _148
REMARK   60  A    between atoms: _147  and  _150
REMARK   61  A    between atoms: _150  and  _151
REMARK   62  A    between atoms: _154  and  _156
REMARK   63  A    between atoms: _156  and  _157
REMARK   64  A    between atoms: _156  and  _159
REMARK   65  A    between atoms: _159  and  _160
REMARK   66  A    between atoms: _160  and  _161
REMARK   67  A    between atoms: _166  and  _168
REMARK   68  A    between atoms: _168  and  _169
REMARK   69  A    between atoms: _168  and  _171
REMARK   70  A    between atoms: _171  and  _172
REMARK   71  A    between atoms: _174  and  _176
REMARK   72  A    between atoms: _176  and  _177
REMARK   73  A    between atoms: _176  and  _179
REMARK   74  A    between atoms: _179  and  _180
REMARK   75  A    between atoms: _190  and  _192
REMARK   76  A    between atoms: _192  and  _193
REMARK   77  A    between atoms: _192  and  _195
REMARK   78  A    between atoms: _195  and  _196
REMARK   79  A    between atoms: _196  and  _197
REMARK   80  A    between atoms: _197  and  _198
REMARK   81  A    between atoms: _198  and  _199
REMARK   82  A    between atoms: _203  and  _205
REMARK   83  A    between atoms: _205  and  _206
REMARK   84  A    between atoms: _205  and  _208
REMARK   85  A    between atoms: _208  and  _209
REMARK   86  A    between atoms: _209  and  _210
REMARK   87  A    between atoms: _210  and  _211
REMARK   88  A    between atoms: _220  and  _222
REMARK   89  A    between atoms: _222  and  _223
REMARK   90  A    between atoms: _222  and  _225
REMARK   91  A    between atoms: _225  and  _226
REMARK   92  A    between atoms: _229  and  _231
REMARK   93  A    between atoms: _231  and  _232
REMARK   94  A    between atoms: _231  and  _234
REMARK   95  A    between atoms: _234  and  _235
REMARK   96  A    between atoms: _239  and  _240
REMARK   97  A    between atoms: _245  and  _247
REMARK   98  A    between atoms: _247  and  _248
REMARK   99  A    between atoms: _247  and  _250
REMARK  100  A    between atoms: _250  and  _251
REMARK  101  A    between atoms: _251  and  _252
REMARK  102  A    between atoms: _255  and  _257
REMARK  103  A    between atoms: _257  and  _258
REMARK  104  A    between atoms: _257  and  _260
REMARK  105  A    between atoms: _260  and  _261
REMARK  106  A    between atoms: _266  and  _268
REMARK  107  A    between atoms: _268  and  _269
REMARK  108  A    between atoms: _268  and  _271
REMARK  109  A    between atoms: _271  and  _272
REMARK  110  A    between atoms: _272  and  _273
REMARK  111  A    between atoms: _273  and  _274
REMARK  112  A    between atoms: _274  and  _275
REMARK  113  A    between atoms: _279  and  _281
REMARK  114  A    between atoms: _281  and  _282
REMARK  115  A    between atoms: _281  and  _284
REMARK  116  A    between atoms: _284  and  _285
REMARK  117  A    between atoms: _295  and  _297
REMARK  118  A    between atoms: _297  and  _298
REMARK  119  A    between atoms: _297  and  _300
REMARK  120  A    between atoms: _300  and  _301
REMARK                            x       y       z     vdW  Elec       q    Type
REMARK                         _______ _______ _______ _____ _____    ______ ____
ROOT
ATOM      1  O   HOH     1      83.468  54.221  19.523  0.00  0.00    +0.000 OA
ENDROOT
TORSDOF 0
REMARK  Name = ../refined-set-2016/3uw5/3uw5_pocket.pdb
REMARK  120 active torsions:
REMARK  status: ('A' for Active; 'I' for Inactive)
REMARK    1  A    between atoms: _1  and  _3
REMARK    2  A    between atoms: _3  and  _4
REMARK    3  A    between atoms: _3  and  _6
REMARK    4  A    between atoms: _9  and  _11
REMARK    5  A    between atoms: _11  and  _12
REMARK    6  A    between atoms: _11  and  _14
REMARK    7  A    between atoms: _14  and  _15
REMARK    8  A    between atoms: _18  and  _20
REMARK    9  A    between atoms: _20  and  _21
REMARK   10  A    between atoms: _20  and  _23
REMARK   11  A    between atoms: _23  and  _24
REMARK   12  A    between atoms: _30  and  _32
REMARK   13  A    between atoms: _32  and  _33
REMARK   14  A    between atoms: _32  and  _35
REMARK   15  A    between atoms: _35  and  _36
REMARK   16  A    between atoms: _42  and  _44
REMARK   17  A    between atoms: _44  and  _45
REMARK   18  A    between atoms: _44  and  _47
REMARK   19  A    between atoms: _47  and  _48
REMARK   20  A    between atoms: _53  and  _55
REMARK   21  A    between atoms: _55  and  _56
REMARK   22  A    between atoms: _55  and  _58
REMARK   23  A    between atoms: _58  and  _59
REMARK   24  A    between atoms: _62  and  _64
REMARK   25  A    between atoms: _64  and  _65
REMARK   26  A    between atoms: _67  and  _69
REMARK   27  A    between atoms: _69  and  _70
REMARK   28  A    between atoms: _69  and  _72
REMARK   29  A    between atoms: _72  and  _73
REMARK   30  A    between atoms: _76  and  _78
REMARK   31  A    between atoms: _78  and  _79
REMARK   32  A    between atoms: _78  and  _81
REMARK   33  A    between atoms: _81  and  _82
REMARK   34  A    between atoms: _82  and  _83
REMARK   35  A    between atoms: _83  and  _84
REMARK   36  A    between atoms: _84  and  _85
REMARK   37  A    between atoms: _89  and  _91
REMARK   38  A    between atoms: _91  and  _92
REMARK   39  A    between atoms: _91  and  _94
REMARK   40  A    between atoms: _97  and  _99
REMARK   41  A    between atoms: _99  and  _100
REMARK   42  A    between atoms: _99  and  _102
REMARK   43  A    between atoms: _102  and  _103
REMARK   44  A    between atoms: _103  and  _104
REMARK   45  A    between atoms: _104  and  _105
REMARK   46  A    between atoms: _114  and  _116
REMARK   47  A    between atoms: _116  and  _117
REMARK   48  A    between atoms: _116  and  _119
REMARK   49  A    between atoms: _121  and  _123
REMARK   50  A    between atoms: _123  and  _124
REMARK   51  A    between atoms: _123  and  _126
REMARK   52  A    between atoms: _126  and  _127
REMARK   53  A    between atoms: _132  and  _133
REMARK   54  A    between atoms: _135  and  _137
REMARK   55  A    between atoms: _137  and  _138
REMARK   56  A    between atoms: _140  and  _142
REMARK   57  A    between atoms: _142  and  _143
REMARK   58  A    between atoms: _145  and  _147
REMARK   59  A    between atoms: _147  and  _148
REMARK   60  A    between atoms: _147  and  _150
REMARK   61  A    between atoms: _150  and  _151
REMARK   62  A    between atoms: _154  and  _156
REMARK   63  A    between atoms: _156  and  _157
REMARK   64  A    between atoms: _156  and  _159
REMARK   65  A    between atoms: _159  and  _160
REMARK   66  A    between atoms: _160  and  _161
REMARK   67  A    between atoms: _166  and  _168
REMARK   68  A    between atoms: _168  and  _169
REMARK   69  A    between atoms: _168  and  _171
REMARK   70  A    between atoms: _171  and  _172
REMARK   71  A    between atoms: _174  and  _176
REMARK   72  A    between atoms: _176  and  _177
REMARK   73  A    between atoms: _176  and  _179
REMARK   74  A    between atoms: _179  and  _180
REMARK   75  A    between atoms: _190  and  _192
REMARK   76  A    between atoms: _192  and  _193
REMARK   77  A    between atoms: _192  and  _195
REMARK   78  A    between atoms: _195  and  _196
REMARK   79  A    between atoms: _196  and  _197
REMARK   80  A    between atoms: _197  and  _198
REMARK   81  A    between atoms: _198  and  _199
REMARK   82  A    between atoms: _203  and  _205
REMARK   83  A    between atoms: _205  and  _206
REMARK   84  A    between atoms: _205  and  _208
REMARK   85  A    between atoms: _208  and  _209
REMARK   86  A    between atoms: _209  and  _210
REMARK   87  A    between atoms: _210  and  _211
REMARK   88  A    between atoms: _220  and  _222
REMARK   89  A    between atoms: _222  and  _223
REMARK   90  A    between atoms: _222  and  _225
REMARK   91  A    between atoms: _225  and  _226
REMARK   92  A    between atoms: _229  and  _231
REMARK   93  A    between atoms: _231  and  _232
REMARK   94  A    between atoms: _231  and  _234
REMARK   95  A    between atoms: _234  and  _235
REMARK   96  A    between atoms: _239  and  _240
REMARK   97  A    between atoms: _245  and  _247
REMARK   98  A    between atoms: _247  and  _248
REMARK   99  A    between atoms: _247  and  _250
REMARK  100  A    between atoms: _250  and  _251
REMARK  101  A    between atoms: _251  and  _252
REMARK  102  A    between atoms: _255  and  _257
REMARK  103  A    between atoms: _257  and  _258
REMARK  104  A    between atoms: _257  and  _260
REMARK  105  A    between atoms: _260  and  _261
REMARK  106  A    between atoms: _266  and  _268
REMARK  107  A    between atoms: _268  and  _269
REMARK  108  A    between atoms: _268  and  _271
REMARK  109  A    between atoms: _271  and  _272
REMARK  110  A    between atoms: _272  and  _273
REMARK  111  A    between atoms: _273  and  _274
REMARK  112  A    between atoms: _274  and  _275
REMARK  113  A    between atoms: _279  and  _281
REMARK  114  A    between atoms: _281  and  _282
REMARK  115  A    between atoms: _281  and  _284
REMARK  116  A    between atoms: _284  and  _285
REMARK  117  A    between atoms: _295  and  _297
REMARK  118  A    between atoms: _297  and  _298
REMARK  119  A    between atoms: _297  and  _300
REMARK  120  A    between atoms: _300  and  _301
REMARK                            x       y       z     vdW  Elec       q    Type
REMARK                         _______ _______ _______ _____ _____    ______ ____
ROOT
ATOM      1  O   HOH     1      92.393  57.872  15.748  0.00  0.00    +0.000 OA
ENDROOT
TORSDOF 0
REMARK  Name = ../refined-set-2016/3uw5/3uw5_pocket.pdb
REMARK  120 active torsions:
REMARK  status: ('A' for Active; 'I' for Inactive)
REMARK    1  A    between atoms: _1  and  _3
REMARK    2  A    between atoms: _3  and  _4
REMARK    3  A    between atoms: _3  and  _6
REMARK    4  A    between atoms: _9  and  _11
REMARK    5  A    between atoms: _11  and  _12
REMARK    6  A    between atoms: _11  and  _14
REMARK    7  A    between atoms: _14  and  _15
REMARK    8  A    between atoms: _18  and  _20
REMARK    9  A    between atoms: _20  and  _21
REMARK   10  A    between atoms: _20  and  _23
REMARK   11  A    between atoms: _23  and  _24
REMARK   12  A    between atoms: _30  and  _32
REMARK   13  A    between atoms: _32  and  _33
REMARK   14  A    between atoms: _32  and  _35
REMARK   15  A    between atoms: _35  and  _36
REMARK   16  A    between atoms: _42  and  _44
REMARK   17  A    between atoms: _44  and  _45
REMARK   18  A    between atoms: _44  and  _47
REMARK   19  A    between atoms: _47  and  _48
REMARK   20  A    between atoms: _53  and  _55
REMARK   21  A    between atoms: _55  and  _56
REMARK   22  A    between atoms: _55  and  _58
REMARK   23  A    between atoms: _58  and  _59
REMARK   24  A    between atoms: _62  and  _64
REMARK   25  A    between atoms: _64  and  _65
REMARK   26  A    between atoms: _67  and  _69
REMARK   27  A    between atoms: _69  and  _70
REMARK   28  A    between atoms: _69  and  _72
REMARK   29  A    between atoms: _72  and  _73
REMARK   30  A    between atoms: _76  and  _78
REMARK   31  A    between atoms: _78  and  _79
REMARK   32  A    between atoms: _78  and  _81
REMARK   33  A    between atoms: _81  and  _82
REMARK   34  A    between atoms: _82  and  _83
REMARK   35  A    between atoms: _83  and  _84
REMARK   36  A    between atoms: _84  and  _85
REMARK   37  A    between atoms: _89  and  _91
REMARK   38  A    between atoms: _91  and  _92
REMARK   39  A    between atoms: _91  and  _94
REMARK   40  A    between atoms: _97  and  _99
REMARK   41  A    between atoms: _99  and  _100
REMARK   42  A    between atoms: _99  and  _102
REMARK   43  A    between atoms: _102  and  _103
REMARK   44  A    between atoms: _103  and  _104
REMARK   45  A    between atoms: _104  and  _105
REMARK   46  A    between atoms: _114  and  _116
REMARK   47  A    between atoms: _116  and  _117
REMARK   48  A    between atoms: _116  and  _119
REMARK   49  A    between atoms: _121  and  _123
REMARK   50  A    between atoms: _123  and  _124
REMARK   51  A    between atoms: _123  and  _126
REMARK   52  A    between atoms: _126  and  _127
REMARK   53  A    between atoms: _132  and  _133
REMARK   54  A    between atoms: _135  and  _137
REMARK   55  A    between atoms: _137  and  _138
REMARK   56  A    between atoms: _140  and  _142
REMARK   57  A    between atoms: _142  and  _143
REMARK   58  A    between atoms: _145  and  _147
REMARK   59  A    between atoms: _147  and  _148
REMARK   60  A    between atoms: _147  and  _150
REMARK   61  A    between atoms: _150  and  _151
REMARK   62  A    between atoms: _154  and  _156
REMARK   63  A    between atoms: _156  and  _157
REMARK   64  A    between atoms: _156  and  _159
REMARK   65  A    between atoms: _159  and  _160
REMARK   66  A    between atoms: _160  and  _161
REMARK   67  A    between atoms: _166  and  _168
REMARK   68  A    between atoms: _168  and  _169
REMARK   69  A    between atoms: _168  and  _171
REMARK   70  A    between atoms: _171  and  _172
REMARK   71  A    between atoms: _174  and  _176
REMARK   72  A    between atoms: _176  and  _177
REMARK   73  A    between atoms: _176  and  _179
REMARK   74  A    between atoms: _179  and  _180
REMARK   75  A    between atoms: _190  and  _192
REMARK   76  A    between atoms: _192  and  _193
REMARK   77  A    between atoms: _192  and  _195
REMARK   78  A    between atoms: _195  and  _196
REMARK   79  A    between atoms: _196  and  _197
REMARK   80  A    between atoms: _197  and  _198
REMARK   81  A    between atoms: _198  and  _199
REMARK   82  A    between atoms: _203  and  _205
REMARK   83  A    between atoms: _205  and  _206
REMARK   84  A    between atoms: _205  and  _208
REMARK   85  A    between atoms: _208  and  _209
REMARK   86  A    between atoms: _209  and  _210
REMARK   87  A    between atoms: _210  and  _211
REMARK   88  A    between atoms: _220  and  _222
REMARK   89  A    between atoms: _222  and  _223
REMARK   90  A    between atoms: _222  and  _225
REMARK   91  A    between atoms: _225  and  _226
REMARK   92  A    between atoms: _229  and  _231
REMARK   93  A    between atoms: _231  and  _232
REMARK   94  A    between atoms: _231  and  _234
REMARK   95  A    between atoms: _234  and  _235
REMARK   96  A    between atoms: _239  and  _240
REMARK   97  A    between atoms: _245  and  _247
REMARK   98  A    between atoms: _247  and  _248
REMARK   99  A    between atoms: _247  and  _250
REMARK  100  A    between atoms: _250  and  _251
REMARK  101  A    between atoms: _251  and  _252
REMARK  102  A    between atoms: _255  and  _257
REMARK  103  A    between atoms: _257  and  _258
REMARK  104  A    between atoms: _257  and  _260
REMARK  105  A    between atoms: _260  and  _261
REMARK  106  A    between atoms: _266  and  _268
REMARK  107  A    between atoms: _268  and  _269
REMARK  108  A    between atoms: _268  and  _271
REMARK  109  A    between atoms: _271  and  _272
REMARK  110  A    between atoms: _272  and  _273
REMARK  111  A    between atoms: _273  and  _274
REMARK  112  A    between atoms: _274  and  _275
REMARK  113  A    between atoms: _279  and  _281
REMARK  114  A    between atoms: _281  and  _282
REMARK  115  A    between atoms: _281  and  _284
REMARK  116  A    between atoms: _284  and  _285
REMARK  117  A    between atoms: _295  and  _297
REMARK  118  A    between atoms: _297  and  _298
REMARK  119  A    between atoms: _297  and  _300
REMARK  120  A    between atoms: _300  and  _301
REMARK                            x       y       z     vdW  Elec       q    Type
REMARK                         _______ _______ _______ _____ _____    ______ ____
ROOT
ATOM      1  O   HOH     1      78.823  55.689  18.364  0.00  0.00    +0.000 OA
ENDROOT
TORSDOF 0
REMARK  Name = ../refined-set-2016/3uw5/3uw5_pocket.pdb
REMARK  120 active torsions:
REMARK  status: ('A' for Active; 'I' for Inactive)
REMARK    1  A    between atoms: _1  and  _3
REMARK    2  A    between atoms: _3  and  _4
REMARK    3  A    between atoms: _3  and  _6
REMARK    4  A    between atoms: _9  and  _11
REMARK    5  A    between atoms: _11  and  _12
REMARK    6  A    between atoms: _11  and  _14
REMARK    7  A    between atoms: _14  and  _15
REMARK    8  A    between atoms: _18  and  _20
REMARK    9  A    between atoms: _20  and  _21
REMARK   10  A    between atoms: _20  and  _23
REMARK   11  A    between atoms: _23  and  _24
REMARK   12  A    between atoms: _30  and  _32
REMARK   13  A    between atoms: _32  and  _33
REMARK   14  A    between atoms: _32  and  _35
REMARK   15  A    between atoms: _35  and  _36
REMARK   16  A    between atoms: _42  and  _44
REMARK   17  A    between atoms: _44  and  _45
REMARK   18  A    between atoms: _44  and  _47
REMARK   19  A    between atoms: _47  and  _48
REMARK   20  A    between atoms: _53  and  _55
REMARK   21  A    between atoms: _55  and  _56
REMARK   22  A    between atoms: _55  and  _58
REMARK   23  A    between atoms: _58  and  _59
REMARK   24  A    between atoms: _62  and  _64
REMARK   25  A    between atoms: _64  and  _65
REMARK   26  A    between atoms: _67  and  _69
REMARK   27  A    between atoms: _69  and  _70
REMARK   28  A    between atoms: _69  and  _72
REMARK   29  A    between atoms: _72  and  _73
REMARK   30  A    between atoms: _76  and  _78
REMARK   31  A    between atoms: _78  and  _79
REMARK   32  A    between atoms: _78  and  _81
REMARK   33  A    between atoms: _81  and  _82
REMARK   34  A    between atoms: _82  and  _83
REMARK   35  A    between atoms: _83  and  _84
REMARK   36  A    between atoms: _84  and  _85
REMARK   37  A    between atoms: _89  and  _91
REMARK   38  A    between atoms: _91  and  _92
REMARK   39  A    between atoms: _91  and  _94
REMARK   40  A    between atoms: _97  and  _99
REMARK   41  A    between atoms: _99  and  _100
REMARK   42  A    between atoms: _99  and  _102
REMARK   43  A    between atoms: _102  and  _103
REMARK   44  A    between atoms: _103  and  _104
REMARK   45  A    between atoms: _104  and  _105
REMARK   46  A    between atoms: _114  and  _116
REMARK   47  A    between atoms: _116  and  _117
REMARK   48  A    between atoms: _116  and  _119
REMARK   49  A    between atoms: _121  and  _123
REMARK   50  A    between atoms: _123  and  _124
REMARK   51  A    between atoms: _123  and  _126
REMARK   52  A    between atoms: _126  and  _127
REMARK   53  A    between atoms: _132  and  _133
REMARK   54  A    between atoms: _135  and  _137
REMARK   55  A    between atoms: _137  and  _138
REMARK   56  A    between atoms: _140  and  _142
REMARK   57  A    between atoms: _142  and  _143
REMARK   58  A    between atoms: _145  and  _147
REMARK   59  A    between atoms: _147  and  _148
REMARK   60  A    between atoms: _147  and  _150
REMARK   61  A    between atoms: _150  and  _151
REMARK   62  A    between atoms: _154  and  _156
REMARK   63  A    between atoms: _156  and  _157
REMARK   64  A    between atoms: _156  and  _159
REMARK   65  A    between atoms: _159  and  _160
REMARK   66  A    between atoms: _160  and  _161
REMARK   67  A    between atoms: _166  and  _168
REMARK   68  A    between atoms: _168  and  _169
REMARK   69  A    between atoms: _168  and  _171
REMARK   70  A    between atoms: _171  and  _172
REMARK   71  A    between atoms: _174  and  _176
REMARK   72  A    between atoms: _176  and  _177
REMARK   73  A    between atoms: _176  and  _179
REMARK   74  A    between atoms: _179  and  _180
REMARK   75  A    between atoms: _190  and  _192
REMARK   76  A    between atoms: _192  and  _193
REMARK   77  A    between atoms: _192  and  _195
REMARK   78  A    between atoms: _195  and  _196
REMARK   79  A    between atoms: _196  and  _197
REMARK   80  A    between atoms: _197  and  _198
REMARK   81  A    between atoms: _198  and  _199
REMARK   82  A    between atoms: _203  and  _205
REMARK   83  A    between atoms: _205  and  _206
REMARK   84  A    between atoms: _205  and  _208
REMARK   85  A    between atoms: _208  and  _209
REMARK   86  A    between atoms: _209  and  _210
REMARK   87  A    between atoms: _210  and  _211
REMARK   88  A    between atoms: _220  and  _222
REMARK   89  A    between atoms: _222  and  _223
REMARK   90  A    between atoms: _222  and  _225
REMARK   91  A    between atoms: _225  and  _226
REMARK   92  A    between atoms: _229  and  _231
REMARK   93  A    between atoms: _231  and  _232
REMARK   94  A    between atoms: _231  and  _234
REMARK   95  A    between atoms: _234  and  _235
REMARK   96  A    between atoms: _239  and  _240
REMARK   97  A    between atoms: _245  and  _247
REMARK   98  A    between atoms: _247  and  _248
REMARK   99  A    between atoms: _247  and  _250
REMARK  100  A    between atoms: _250  and  _251
REMARK  101  A    between atoms: _251  and  _252
REMARK  102  A    between atoms: _255  and  _257
REMARK  103  A    between atoms: _257  and  _258
REMARK  104  A    between atoms: _257  and  _260
REMARK  105  A    between atoms: _260  and  _261
REMARK  106  A    between atoms: _266  and  _268
REMARK  107  A    between atoms: _268  and  _269
REMARK  108  A    between atoms: _268  and  _271
REMARK  109  A    between atoms: _271  and  _272
REMARK  110  A    between atoms: _272  and  _273
REMARK  111  A    between atoms: _273  and  _274
REMARK  112  A    between atoms: _274  and  _275
REMARK  113  A    between atoms: _279  and  _281
REMARK  114  A    between atoms: _281  and  _282
REMARK  115  A    between atoms: _281  and  _284
REMARK  116  A    between atoms: _284  and  _285
REMARK  117  A    between atoms: _295  and  _297
REMARK  118  A    between atoms: _297  and  _298
REMARK  119  A    between atoms: _297  and  _300
REMARK  120  A    between atoms: _300  and  _301
REMARK                            x       y       z     vdW  Elec       q    Type
REMARK                         _______ _______ _______ _____ _____    ______ ____
ROOT
ATOM      1  O   HOH     1      76.200  58.532  24.452  0.00  0.00    +0.000 OA
ENDROOT
TORSDOF 0
REMARK  Name = ../refined-set-2016/3uw5/3uw5_pocket.pdb
REMARK  120 active torsions:
REMARK  status: ('A' for Active; 'I' for Inactive)
REMARK    1  A    between atoms: _1  and  _3
REMARK    2  A    between atoms: _3  and  _4
REMARK    3  A    between atoms: _3  and  _6
REMARK    4  A    between atoms: _9  and  _11
REMARK    5  A    between atoms: _11  and  _12
REMARK    6  A    between atoms: _11  and  _14
REMARK    7  A    between atoms: _14  and  _15
REMARK    8  A    between atoms: _18  and  _20
REMARK    9  A    between atoms: _20  and  _21
REMARK   10  A    between atoms: _20  and  _23
REMARK   11  A    between atoms: _23  and  _24
REMARK   12  A    between atoms: _30  and  _32
REMARK   13  A    between atoms: _32  and  _33
REMARK   14  A    between atoms: _32  and  _35
REMARK   15  A    between atoms: _35  and  _36
REMARK   16  A    between atoms: _42  and  _44
REMARK   17  A    between atoms: _44  and  _45
REMARK   18  A    between atoms: _44  and  _47
REMARK   19  A    between atoms: _47  and  _48
REMARK   20  A    between atoms: _53  and  _55
REMARK   21  A    between atoms: _55  and  _56
REMARK   22  A    between atoms: _55  and  _58
REMARK   23  A    between atoms: _58  and  _59
REMARK   24  A    between atoms: _62  and  _64
REMARK   25  A    between atoms: _64  and  _65
REMARK   26  A    between atoms: _67  and  _69
REMARK   27  A    between atoms: _69  and  _70
REMARK   28  A    between atoms: _69  and  _72
REMARK   29  A    between atoms: _72  and  _73
REMARK   30  A    between atoms: _76  and  _78
REMARK   31  A    between atoms: _78  and  _79
REMARK   32  A    between atoms: _78  and  _81
REMARK   33  A    between atoms: _81  and  _82
REMARK   34  A    between atoms: _82  and  _83
REMARK   35  A    between atoms: _83  and  _84
REMARK   36  A    between atoms: _84  and  _85
REMARK   37  A    between atoms: _89  and  _91
REMARK   38  A    between atoms: _91  and  _92
REMARK   39  A    between atoms: _91  and  _94
REMARK   40  A    between atoms: _97  and  _99
REMARK   41  A    between atoms: _99  and  _100
REMARK   42  A    between atoms: _99  and  _102
REMARK   43  A    between atoms: _102  and  _103
REMARK   44  A    between atoms: _103  and  _104
REMARK   45  A    between atoms: _104  and  _105
REMARK   46  A    between atoms: _114  and  _116
REMARK   47  A    between atoms: _116  and  _117
REMARK   48  A    between atoms: _116  and  _119
REMARK   49  A    between atoms: _121  and  _123
REMARK   50  A    between atoms: _123  and  _124
REMARK   51  A    between atoms: _123  and  _126
REMARK   52  A    between atoms: _126  and  _127
REMARK   53  A    between atoms: _132  and  _133
REMARK   54  A    between atoms: _135  and  _137
REMARK   55  A    between atoms: _137  and  _138
REMARK   56  A    between atoms: _140  and  _142
REMARK   57  A    between atoms: _142  and  _143
REMARK   58  A    between atoms: _145  and  _147
REMARK   59  A    between atoms: _147  and  _148
REMARK   60  A    between atoms: _147  and  _150
REMARK   61  A    between atoms: _150  and  _151
REMARK   62  A    between atoms: _154  and  _156
REMARK   63  A    between atoms: _156  and  _157
REMARK   64  A    between atoms: _156  and  _159
REMARK   65  A    between atoms: _159  and  _160
REMARK   66  A    between atoms: _160  and  _161
REMARK   67  A    between atoms: _166  and  _168
REMARK   68  A    between atoms: _168  and  _169
REMARK   69  A    between atoms: _168  and  _171
REMARK   70  A    between atoms: _171  and  _172
REMARK   71  A    between atoms: _174  and  _176
REMARK   72  A    between atoms: _176  and  _177
REMARK   73  A    between atoms: _176  and  _179
REMARK   74  A    between atoms: _179  and  _180
REMARK   75  A    between atoms: _190  and  _192
REMARK   76  A    between atoms: _192  and  _193
REMARK   77  A    between atoms: _192  and  _195
REMARK   78  A    between atoms: _195  and  _196
REMARK   79  A    between atoms: _196  and  _197
REMARK   80  A    between atoms: _197  and  _198
REMARK   81  A    between atoms: _198  and  _199
REMARK   82  A    between atoms: _203  and  _205
REMARK   83  A    between atoms: _205  and  _206
REMARK   84  A    between atoms: _205  and  _208
REMARK   85  A    between atoms: _208  and  _209
REMARK   86  A    between atoms: _209  and  _210
REMARK   87  A    between atoms: _210  and  _211
REMARK   88  A    between atoms: _220  and  _222
REMARK   89  A    between atoms: _222  and  _223
REMARK   90  A    between atoms: _222  and  _225
REMARK   91  A    between atoms: _225  and  _226
REMARK   92  A    between atoms: _229  and  _231
REMARK   93  A    between atoms: _231  and  _232
REMARK   94  A    between atoms: _231  and  _234
REMARK   95  A    between atoms: _234  and  _235
REMARK   96  A    between atoms: _239  and  _240
REMARK   97  A    between atoms: _245  and  _247
REMARK   98  A    between atoms: _247  and  _248
REMARK   99  A    between atoms: _247  and  _250
REMARK  100  A    between atoms: _250  and  _251
REMARK  101  A    between atoms: _251  and  _252
REMARK  102  A    between atoms: _255  and  _257
REMARK  103  A    between atoms: _257  and  _258
REMARK  104  A    between atoms: _257  and  _260
REMARK  105  A    between atoms: _260  and  _261
REMARK  106  A    between atoms: _266  and  _268
REMARK  107  A    between atoms: _268  and  _269
REMARK  108  A    between atoms: _268  and  _271
REMARK  109  A    between atoms: _271  and  _272
REMARK  110  A    between atoms: _272  and  _273
REMARK  111  A    between atoms: _273  and  _274
REMARK  112  A    between atoms: _274  and  _275
REMARK  113  A    between atoms: _279  and  _281
REMARK  114  A    between atoms: _281  and  _282
REMARK  115  A    between atoms: _281  and  _284
REMARK  116  A    between atoms: _284  and  _285
REMARK  117  A    between atoms: _295  and  _297
REMARK  118  A    between atoms: _297  and  _298
REMARK  119  A    between atoms: _297  and  _300
REMARK  120  A    between atoms: _300  and  _301
REMARK                            x       y       z     vdW  Elec       q    Type
REMARK                         _______ _______ _______ _____ _____    ______ ____
ROOT
ATOM      1  O   HOH     1      80.111  68.670  10.189  0.00  0.00    +0.000 OA
ENDROOT
TORSDOF 0
REMARK  Name = ../refined-set-2016/3uw5/3uw5_pocket.pdb
REMARK  120 active torsions:
REMARK  status: ('A' for Active; 'I' for Inactive)
REMARK    1  A    between atoms: _1  and  _3
REMARK    2  A    between atoms: _3  and  _4
REMARK    3  A    between atoms: _3  and  _6
REMARK    4  A    between atoms: _9  and  _11
REMARK    5  A    between atoms: _11  and  _12
REMARK    6  A    between atoms: _11  and  _14
REMARK    7  A    between atoms: _14  and  _15
REMARK    8  A    between atoms: _18  and  _20
REMARK    9  A    between atoms: _20  and  _21
REMARK   10  A    between atoms: _20  and  _23
REMARK   11  A    between atoms: _23  and  _24
REMARK   12  A    between atoms: _30  and  _32
REMARK   13  A    between atoms: _32  and  _33
REMARK   14  A    between atoms: _32  and  _35
REMARK   15  A    between atoms: _35  and  _36
REMARK   16  A    between atoms: _42  and  _44
REMARK   17  A    between atoms: _44  and  _45
REMARK   18  A    between atoms: _44  and  _47
REMARK   19  A    between atoms: _47  and  _48
REMARK   20  A    between atoms: _53  and  _55
REMARK   21  A    between atoms: _55  and  _56
REMARK   22  A    between atoms: _55  and  _58
REMARK   23  A    between atoms: _58  and  _59
REMARK   24  A    between atoms: _62  and  _64
REMARK   25  A    between atoms: _64  and  _65
REMARK   26  A    between atoms: _67  and  _69
REMARK   27  A    between atoms: _69  and  _70
REMARK   28  A    between atoms: _69  and  _72
REMARK   29  A    between atoms: _72  and  _73
REMARK   30  A    between atoms: _76  and  _78
REMARK   31  A    between atoms: _78  and  _79
REMARK   32  A    between atoms: _78  and  _81
REMARK   33  A    between atoms: _81  and  _82
REMARK   34  A    between atoms: _82  and  _83
REMARK   35  A    between atoms: _83  and  _84
REMARK   36  A    between atoms: _84  and  _85
REMARK   37  A    between atoms: _89  and  _91
REMARK   38  A    between atoms: _91  and  _92
REMARK   39  A    between atoms: _91  and  _94
REMARK   40  A    between atoms: _97  and  _99
REMARK   41  A    between atoms: _99  and  _100
REMARK   42  A    between atoms: _99  and  _102
REMARK   43  A    between atoms: _102  and  _103
REMARK   44  A    between atoms: _103  and  _104
REMARK   45  A    between atoms: _104  and  _105
REMARK   46  A    between atoms: _114  and  _116
REMARK   47  A    between atoms: _116  and  _117
REMARK   48  A    between atoms: _116  and  _119
REMARK   49  A    between atoms: _121  and  _123
REMARK   50  A    between atoms: _123  and  _124
REMARK   51  A    between atoms: _123  and  _126
REMARK   52  A    between atoms: _126  and  _127
REMARK   53  A    between atoms: _132  and  _133
REMARK   54  A    between atoms: _135  and  _137
REMARK   55  A    between atoms: _137  and  _138
REMARK   56  A    between atoms: _140  and  _142
REMARK   57  A    between atoms: _142  and  _143
REMARK   58  A    between atoms: _145  and  _147
REMARK   59  A    between atoms: _147  and  _148
REMARK   60  A    between atoms: _147  and  _150
REMARK   61  A    between atoms: _150  and  _151
REMARK   62  A    between atoms: _154  and  _156
REMARK   63  A    between atoms: _156  and  _157
REMARK   64  A    between atoms: _156  and  _159
REMARK   65  A    between atoms: _159  and  _160
REMARK   66  A    between atoms: _160  and  _161
REMARK   67  A    between atoms: _166  and  _168
REMARK   68  A    between atoms: _168  and  _169
REMARK   69  A    between atoms: _168  and  _171
REMARK   70  A    between atoms: _171  and  _172
REMARK   71  A    between atoms: _174  and  _176
REMARK   72  A    between atoms: _176  and  _177
REMARK   73  A    between atoms: _176  and  _179
REMARK   74  A    between atoms: _179  and  _180
REMARK   75  A    between atoms: _190  and  _192
REMARK   76  A    between atoms: _192  and  _193
REMARK   77  A    between atoms: _192  and  _195
REMARK   78  A    between atoms: _195  and  _196
REMARK   79  A    between atoms: _196  and  _197
REMARK   80  A    between atoms: _197  and  _198
REMARK   81  A    between atoms: _198  and  _199
REMARK   82  A    between atoms: _203  and  _205
REMARK   83  A    between atoms: _205  and  _206
REMARK   84  A    between atoms: _205  and  _208
REMARK   85  A    between atoms: _208  and  _209
REMARK   86  A    between atoms: _209  and  _210
REMARK   87  A    between atoms: _210  and  _211
REMARK   88  A    between atoms: _220  and  _222
REMARK   89  A    between atoms: _222  and  _223
REMARK   90  A    between atoms: _222  and  _225
REMARK   91  A    between atoms: _225  and  _226
REMARK   92  A    between atoms: _229  and  _231
REMARK   93  A    between atoms: _231  and  _232
REMARK   94  A    between atoms: _231  and  _234
REMARK   95  A    between atoms: _234  and  _235
REMARK   96  A    between atoms: _239  and  _240
REMARK   97  A    between atoms: _245  and  _247
REMARK   98  A    between atoms: _247  and  _248
REMARK   99  A    between atoms: _247  and  _250
REMARK  100  A    between atoms: _250  and  _251
REMARK  101  A    between atoms: _251  and  _252
REMARK  102  A    between atoms: _255  and  _257
REMARK  103  A    between atoms: _257  and  _258
REMARK  104  A    between atoms: _257  and  _260
REMARK  105  A    between atoms: _260  and  _261
REMARK  106  A    between atoms: _266  and  _268
REMARK  107  A    between atoms: _268  and  _269
REMARK  108  A    between atoms: _268  and  _271
REMARK  109  A    between atoms: _271  and  _272
REMARK  110  A    between atoms: _272  and  _273
REMARK  111  A    between atoms: _273  and  _274
REMARK  112  A    between atoms: _274  and  _275
REMARK  113  A    between atoms: _279  and  _281
REMARK  114  A    between atoms: _281  and  _282
REMARK  115  A    between atoms: _281  and  _284
REMARK  116  A    between atoms: _284  and  _285
REMARK  117  A    between atoms: _295  and  _297
REMARK  118  A    between atoms: _297  and  _298
REMARK  119  A    between atoms: _297  and  _300
REMARK  120  A    between atoms: _300  and  _301
REMARK                            x       y       z     vdW  Elec       q    Type
REMARK                         _______ _______ _______ _____ _____    ______ ____
ROOT
ATOM      1  O   HOH     1      72.021  60.989  17.881  0.00  0.00    +0.000 OA
ENDROOT
TORSDOF 0
