REMARK  Name = ../refined-set-2016/4djr/4djr_pocket.pdb
REMARK  211 active torsions:
REMARK  status: ('A' for Active; 'I' for Inactive)
REMARK    1  A    between atoms: _1  and  _3
REMARK    2  A    between atoms: _3  and  _4
REMARK    3  A    between atoms: _3  and  _6
REMARK    4  A    between atoms: _6  and  _7
REMARK    5  A    between atoms: _7  and  _8
REMARK    6  A    between atoms: _8  and  _9
REMARK    7  A    between atoms: _18  and  _20
REMARK    8  A    between atoms: _20  and  _21
REMARK    9  A    between atoms: _20  and  _23
REMARK   10  A    between atoms: _23  and  _24
REMARK   11  A    between atoms: _27  and  _29
REMARK   12  A    between atoms: _29  and  _30
REMARK   13  A    between atoms: _29  and  _32
REMARK   14  A    between atoms: _32  and  _33
REMARK   15  A    between atoms: _36  and  _38
REMARK   16  A    between atoms: _38  and  _39
REMARK   17  A    between atoms: _38  and  _41
REMARK   18  A    between atoms: _41  and  _42
REMARK   19  A    between atoms: _45  and  _47
REMARK   20  A    between atoms: _47  and  _48
REMARK   21  A    between atoms: _47  and  _50
REMARK   22  A    between atoms: _50  and  _51
REMARK   23  A    between atoms: _54  and  _56
REMARK   24  A    between atoms: _56  and  _57
REMARK   25  A    between atoms: _59  and  _61
REMARK   26  A    between atoms: _61  and  _62
REMARK   27  A    between atoms: _65  and  _67
REMARK   28  A    between atoms: _67  and  _68
REMARK   29  A    between atoms: _67  and  _70
REMARK   30  A    between atoms: _70  and  _71
REMARK   31  A    between atoms: _74  and  _76
REMARK   32  A    between atoms: _76  and  _77
REMARK   33  A    between atoms: _76  and  _79
REMARK   34  A    between atoms: _79  and  _80
REMARK   35  A    between atoms: _83  and  _85
REMARK   36  A    between atoms: _85  and  _86
REMARK   37  A    between atoms: _85  and  _88
REMARK   38  A    between atoms: _88  and  _89
REMARK   39  A    between atoms: _92  and  _94
REMARK   40  A    between atoms: _94  and  _95
REMARK   41  A    between atoms: _94  and  _97
REMARK   42  A    between atoms: _100  and  _102
REMARK   43  A    between atoms: _102  and  _103
REMARK   44  A    between atoms: _102  and  _105
REMARK   45  A    between atoms: _105  and  _106
REMARK   46  A    between atoms: _109  and  _111
REMARK   47  A    between atoms: _111  and  _112
REMARK   48  A    between atoms: _114  and  _116
REMARK   49  A    between atoms: _116  and  _117
REMARK   50  A    between atoms: _119  and  _121
REMARK   51  A    between atoms: _121  and  _122
REMARK   52  A    between atoms: _121  and  _124
REMARK   53  A    between atoms: _124  and  _125
REMARK   54  A    between atoms: _128  and  _130
REMARK   55  A    between atoms: _130  and  _131
REMARK   56  A    between atoms: _133  and  _135
REMARK   57  A    between atoms: _135  and  _136
REMARK   58  A    between atoms: _138  and  _140
REMARK   59  A    between atoms: _140  and  _141
REMARK   60  A    between atoms: _140  and  _143
REMARK   61  A    between atoms: _143  and  _144
REMARK   62  A    between atoms: _150  and  _152
REMARK   63  A    between atoms: _152  and  _153
REMARK   64  A    between atoms: _152  and  _155
REMARK   65  A    between atoms: _155  and  _156
REMARK   66  A    between atoms: _159  and  _161
REMARK   67  A    between atoms: _161  and  _162
REMARK   68  A    between atoms: _161  and  _164
REMARK   69  A    between atoms: _164  and  _165
REMARK   70  A    between atoms: _168  and  _170
REMARK   71  A    between atoms: _170  and  _171
REMARK   72  A    between atoms: _170  and  _173
REMARK   73  A    between atoms: _173  and  _174
REMARK   74  A    between atoms: _178  and  _179
REMARK   75  A    between atoms: _184  and  _186
REMARK   76  A    between atoms: _186  and  _187
REMARK   77  A    between atoms: _186  and  _189
REMARK   78  A    between atoms: _192  and  _194
REMARK   79  A    between atoms: _194  and  _195
REMARK   80  A    between atoms: _194  and  _197
REMARK   81  A    between atoms: _197  and  _198
REMARK   82  A    between atoms: _203  and  _205
REMARK   83  A    between atoms: _205  and  _206
REMARK   84  A    between atoms: _205  and  _208
REMARK   85  A    between atoms: _208  and  _209
REMARK   86  A    between atoms: _212  and  _214
REMARK   87  A    between atoms: _214  and  _215
REMARK   88  A    between atoms: _217  and  _219
REMARK   89  A    between atoms: _219  and  _220
REMARK   90  A    between atoms: _219  and  _222
REMARK   91  A    between atoms: _222  and  _223
REMARK   92  A    between atoms: _223  and  _224
REMARK   93  A    between atoms: _224  and  _225
REMARK   94  A    between atoms: _234  and  _236
REMARK   95  A    between atoms: _236  and  _237
REMARK   96  A    between atoms: _236  and  _239
REMARK   97  A    between atoms: _239  and  _240
REMARK   98  A    between atoms: _245  and  _247
REMARK   99  A    between atoms: _247  and  _248
REMARK  100  A    between atoms: _247  and  _250
REMARK  101  A    between atoms: _250  and  _251
REMARK  102  A    between atoms: _251  and  _252
REMARK  103  A    between atoms: _252  and  _253
REMARK  104  A    between atoms: _262  and  _264
REMARK  105  A    between atoms: _264  and  _265
REMARK  106  A    between atoms: _264  and  _267
REMARK  107  A    between atoms: _267  and  _268
REMARK  108  A    between atoms: _271  and  _273
REMARK  109  A    between atoms: _273  and  _274
REMARK  110  A    between atoms: _273  and  _276
REMARK  111  A    between atoms: _276  and  _277
REMARK  112  A    between atoms: _280  and  _282
REMARK  113  A    between atoms: _282  and  _283
REMARK  114  A    between atoms: _282  and  _285
REMARK  115  A    between atoms: _285  and  _286
REMARK  116  A    between atoms: _289  and  _291
REMARK  117  A    between atoms: _291  and  _292
REMARK  118  A    between atoms: _291  and  _294
REMARK  119  A    between atoms: _294  and  _295
REMARK  120  A    between atoms: _298  and  _300
REMARK  121  A    between atoms: _300  and  _301
REMARK  122  A    between atoms: _303  and  _305
REMARK  123  A    between atoms: _305  and  _306
REMARK  124  A    between atoms: _309  and  _311
REMARK  125  A    between atoms: _311  and  _312
REMARK  126  A    between atoms: _311  and  _314
REMARK  127  A    between atoms: _314  and  _315
REMARK  128  A    between atoms: _318  and  _320
REMARK  129  A    between atoms: _320  and  _321
REMARK  130  A    between atoms: _320  and  _323
REMARK  131  A    between atoms: _323  and  _324
REMARK  132  A    between atoms: _327  and  _329
REMARK  133  A    between atoms: _329  and  _330
REMARK  134  A    between atoms: _329  and  _332
REMARK  135  A    between atoms: _332  and  _333
REMARK  136  A    between atoms: _336  and  _338
REMARK  137  A    between atoms: _338  and  _339
REMARK  138  A    between atoms: _338  and  _341
REMARK  139  A    between atoms: _344  and  _346
REMARK  140  A    between atoms: _346  and  _347
REMARK  141  A    between atoms: _346  and  _349
REMARK  142  A    between atoms: _349  and  _350
REMARK  143  A    between atoms: _350  and  _351
REMARK  144  A    between atoms: _351  and  _352
REMARK  145  A    between atoms: _352  and  _353
REMARK  146  A    between atoms: _357  and  _359
REMARK  147  A    between atoms: _359  and  _360
REMARK  148  A    between atoms: _359  and  _362
REMARK  149  A    between atoms: _362  and  _363
REMARK  150  A    between atoms: _363  and  _364
REMARK  151  A    between atoms: _366  and  _368
REMARK  152  A    between atoms: _368  and  _369
REMARK  153  A    between atoms: _368  and  _371
REMARK  154  A    between atoms: _371  and  _372
REMARK  155  A    between atoms: _375  and  _377
REMARK  156  A    between atoms: _377  and  _378
REMARK  157  A    between atoms: _380  and  _382
REMARK  158  A    between atoms: _382  and  _383
REMARK  159  A    between atoms: _385  and  _387
REMARK  160  A    between atoms: _387  and  _388
REMARK  161  A    between atoms: _387  and  _390
REMARK  162  A    between atoms: _390  and  _391
REMARK  163  A    between atoms: _394  and  _396
REMARK  164  A    between atoms: _396  and  _397
REMARK  165  A    between atoms: _399  and  _401
REMARK  166  A    between atoms: _401  and  _402
REMARK  167  A    between atoms: _404  and  _406
REMARK  168  A    between atoms: _406  and  _407
REMARK  169  A    between atoms: _406  and  _409
REMARK  170  A    between atoms: _409  and  _410
REMARK  171  A    between atoms: _416  and  _418
REMARK  172  A    between atoms: _418  and  _419
REMARK  173  A    between atoms: _418  and  _421
REMARK  174  A    between atoms: _421  and  _422
REMARK  175  A    between atoms: _425  and  _427
REMARK  176  A    between atoms: _427  and  _428
REMARK  177  A    between atoms: _427  and  _430
REMARK  178  A    between atoms: _430  and  _431
REMARK  179  A    between atoms: _435  and  _436
REMARK  180  A    between atoms: _441  and  _443
REMARK  181  A    between atoms: _443  and  _444
REMARK  182  A    between atoms: _443  and  _446
REMARK  183  A    between atoms: _446  and  _447
REMARK  184  A    between atoms: _451  and  _452
REMARK  185  A    between atoms: _457  and  _459
REMARK  186  A    between atoms: _459  and  _460
REMARK  187  A    between atoms: _459  and  _462
REMARK  188  A    between atoms: _465  and  _467
REMARK  189  A    between atoms: _467  and  _468
REMARK  190  A    between atoms: _467  and  _470
REMARK  191  A    between atoms: _470  and  _471
REMARK  192  A    between atoms: _476  and  _478
REMARK  193  A    between atoms: _478  and  _479
REMARK  194  A    between atoms: _478  and  _481
REMARK  195  A    between atoms: _481  and  _482
REMARK  196  A    between atoms: _485  and  _487
REMARK  197  A    between atoms: _487  and  _488
REMARK  198  A    between atoms: _487  and  _490
REMARK  199  A    between atoms: _490  and  _491
REMARK  200  A    between atoms: _494  and  _496
REMARK  201  A    between atoms: _496  and  _497
REMARK  202  A    between atoms: _499  and  _501
REMARK  203  A    between atoms: _501  and  _502
REMARK  204  A    between atoms: _501  and  _504
REMARK  205  A    between atoms: _504  and  _505
REMARK  206  A    between atoms: _505  and  _506
REMARK  207  A    between atoms: _506  and  _507
REMARK  208  A    between atoms: _516  and  _518
REMARK  209  A    between atoms: _518  and  _519
REMARK  210  A    between atoms: _518  and  _521
REMARK  211  A    between atoms: _521  and  _522
REMARK                            x       y       z     vdW  Elec       q    Type
REMARK                         _______ _______ _______ _____ _____    ______ ____
ROOT
ATOM      1  NE  ARG A   1      21.080  36.996  23.216  0.00  0.00    -0.265 N 
ATOM      2  HE  ARG A   1      20.219  36.462  22.981  0.00  0.00    +0.259 HD
ATOM      3  CZ  ARG A   1      21.186  38.237  22.748  0.00  0.00    +0.342 C 
ATOM      4  NH2 ARG A   1      22.253  38.981  23.037  0.00  0.00    -0.292 N 
ATOM      5 HH21 ARG A   1      23.012  38.593  23.633  0.00  0.00    +0.255 HD
ATOM      6 HH22 ARG A   1      22.327  39.950  22.667  0.00  0.00    +0.255 HD
ATOM      7  NH1 ARG A   1      20.212  38.744  22.007  0.00  0.00    -0.292 N 
ATOM      8 HH11 ARG A   1      19.370  38.173  21.794  0.00  0.00    +0.255 HD
ATOM      9 HH12 ARG A   1      20.290  39.713  21.639  0.00  0.00    +0.255 HD
ENDROOT
BRANCH   1  10
ATOM     10  CD  ARG A   1      22.090  36.332  24.037  0.00  0.00    +0.174 C 
BRANCH  10  11
ATOM     11  CG  ARG A   1      21.460  35.260  24.872  0.00  0.00    +0.045 C 
BRANCH  11  12
ATOM     12  CB  ARG A   1      22.483  34.542  25.679  0.00  0.00    +0.029 C 
BRANCH  12  13
ATOM     13  CA  ARG A   1      21.873  33.558  26.678  0.00  0.00    +0.133 C 
BRANCH  13  14
ATOM     14  N   ARG A   1      21.214  34.274  27.779  0.00  0.00    -0.239 NA
ATOM     15  H   ARG A   1      21.233  35.313  27.807  0.00  0.00    +0.142 HD
ENDBRANCH  13  14
BRANCH  13  16
ATOM     16  C   ARG A   1      22.971  32.661  27.237  0.00  0.00    +0.224 C 
ATOM     17  O   ARG A   1      23.772  33.115  28.079  0.00  0.00    -0.287 OA
ENDBRANCH  13  16
ENDBRANCH  12  13
ENDBRANCH  11  12
ENDBRANCH  10  11
ENDBRANCH   1  10
TORSDOF 6
REMARK  Name = ../refined-set-2016/4djr/4djr_pocket.pdb
REMARK  211 active torsions:
REMARK  status: ('A' for Active; 'I' for Inactive)
REMARK    1  A    between atoms: _1  and  _3
REMARK    2  A    between atoms: _3  and  _4
REMARK    3  A    between atoms: _3  and  _6
REMARK    4  A    between atoms: _6  and  _7
REMARK    5  A    between atoms: _7  and  _8
REMARK    6  A    between atoms: _8  and  _9
REMARK    7  A    between atoms: _18  and  _20
REMARK    8  A    between atoms: _20  and  _21
REMARK    9  A    between atoms: _20  and  _23
REMARK   10  A    between atoms: _23  and  _24
REMARK   11  A    between atoms: _27  and  _29
REMARK   12  A    between atoms: _29  and  _30
REMARK   13  A    between atoms: _29  and  _32
REMARK   14  A    between atoms: _32  and  _33
REMARK   15  A    between atoms: _36  and  _38
REMARK   16  A    between atoms: _38  and  _39
REMARK   17  A    between atoms: _38  and  _41
REMARK   18  A    between atoms: _41  and  _42
REMARK   19  A    between atoms: _45  and  _47
REMARK   20  A    between atoms: _47  and  _48
REMARK   21  A    between atoms: _47  and  _50
REMARK   22  A    between atoms: _50  and  _51
REMARK   23  A    between atoms: _54  and  _56
REMARK   24  A    between atoms: _56  and  _57
REMARK   25  A    between atoms: _59  and  _61
REMARK   26  A    between atoms: _61  and  _62
REMARK   27  A    between atoms: _65  and  _67
REMARK   28  A    between atoms: _67  and  _68
REMARK   29  A    between atoms: _67  and  _70
REMARK   30  A    between atoms: _70  and  _71
REMARK   31  A    between atoms: _74  and  _76
REMARK   32  A    between atoms: _76  and  _77
REMARK   33  A    between atoms: _76  and  _79
REMARK   34  A    between atoms: _79  and  _80
REMARK   35  A    between atoms: _83  and  _85
REMARK   36  A    between atoms: _85  and  _86
REMARK   37  A    between atoms: _85  and  _88
REMARK   38  A    between atoms: _88  and  _89
REMARK   39  A    between atoms: _92  and  _94
REMARK   40  A    between atoms: _94  and  _95
REMARK   41  A    between atoms: _94  and  _97
REMARK   42  A    between atoms: _100  and  _102
REMARK   43  A    between atoms: _102  and  _103
REMARK   44  A    between atoms: _102  and  _105
REMARK   45  A    between atoms: _105  and  _106
REMARK   46  A    between atoms: _109  and  _111
REMARK   47  A    between atoms: _111  and  _112
REMARK   48  A    between atoms: _114  and  _116
REMARK   49  A    between atoms: _116  and  _117
REMARK   50  A    between atoms: _119  and  _121
REMARK   51  A    between atoms: _121  and  _122
REMARK   52  A    between atoms: _121  and  _124
REMARK   53  A    between atoms: _124  and  _125
REMARK   54  A    between atoms: _128  and  _130
REMARK   55  A    between atoms: _130  and  _131
REMARK   56  A    between atoms: _133  and  _135
REMARK   57  A    between atoms: _135  and  _136
REMARK   58  A    between atoms: _138  and  _140
REMARK   59  A    between atoms: _140  and  _141
REMARK   60  A    between atoms: _140  and  _143
REMARK   61  A    between atoms: _143  and  _144
REMARK   62  A    between atoms: _150  and  _152
REMARK   63  A    between atoms: _152  and  _153
REMARK   64  A    between atoms: _152  and  _155
REMARK   65  A    between atoms: _155  and  _156
REMARK   66  A    between atoms: _159  and  _161
REMARK   67  A    between atoms: _161  and  _162
REMARK   68  A    between atoms: _161  and  _164
REMARK   69  A    between atoms: _164  and  _165
REMARK   70  A    between atoms: _168  and  _170
REMARK   71  A    between atoms: _170  and  _171
REMARK   72  A    between atoms: _170  and  _173
REMARK   73  A    between atoms: _173  and  _174
REMARK   74  A    between atoms: _178  and  _179
REMARK   75  A    between atoms: _184  and  _186
REMARK   76  A    between atoms: _186  and  _187
REMARK   77  A    between atoms: _186  and  _189
REMARK   78  A    between atoms: _192  and  _194
REMARK   79  A    between atoms: _194  and  _195
REMARK   80  A    between atoms: _194  and  _197
REMARK   81  A    between atoms: _197  and  _198
REMARK   82  A    between atoms: _203  and  _205
REMARK   83  A    between atoms: _205  and  _206
REMARK   84  A    between atoms: _205  and  _208
REMARK   85  A    between atoms: _208  and  _209
REMARK   86  A    between atoms: _212  and  _214
REMARK   87  A    between atoms: _214  and  _215
REMARK   88  A    between atoms: _217  and  _219
REMARK   89  A    between atoms: _219  and  _220
REMARK   90  A    between atoms: _219  and  _222
REMARK   91  A    between atoms: _222  and  _223
REMARK   92  A    between atoms: _223  and  _224
REMARK   93  A    between atoms: _224  and  _225
REMARK   94  A    between atoms: _234  and  _236
REMARK   95  A    between atoms: _236  and  _237
REMARK   96  A    between atoms: _236  and  _239
REMARK   97  A    between atoms: _239  and  _240
REMARK   98  A    between atoms: _245  and  _247
REMARK   99  A    between atoms: _247  and  _248
REMARK  100  A    between atoms: _247  and  _250
REMARK  101  A    between atoms: _250  and  _251
REMARK  102  A    between atoms: _251  and  _252
REMARK  103  A    between atoms: _252  and  _253
REMARK  104  A    between atoms: _262  and  _264
REMARK  105  A    between atoms: _264  and  _265
REMARK  106  A    between atoms: _264  and  _267
REMARK  107  A    between atoms: _267  and  _268
REMARK  108  A    between atoms: _271  and  _273
REMARK  109  A    between atoms: _273  and  _274
REMARK  110  A    between atoms: _273  and  _276
REMARK  111  A    between atoms: _276  and  _277
REMARK  112  A    between atoms: _280  and  _282
REMARK  113  A    between atoms: _282  and  _283
REMARK  114  A    between atoms: _282  and  _285
REMARK  115  A    between atoms: _285  and  _286
REMARK  116  A    between atoms: _289  and  _291
REMARK  117  A    between atoms: _291  and  _292
REMARK  118  A    between atoms: _291  and  _294
REMARK  119  A    between atoms: _294  and  _295
REMARK  120  A    between atoms: _298  and  _300
REMARK  121  A    between atoms: _300  and  _301
REMARK  122  A    between atoms: _303  and  _305
REMARK  123  A    between atoms: _305  and  _306
REMARK  124  A    between atoms: _309  and  _311
REMARK  125  A    between atoms: _311  and  _312
REMARK  126  A    between atoms: _311  and  _314
REMARK  127  A    between atoms: _314  and  _315
REMARK  128  A    between atoms: _318  and  _320
REMARK  129  A    between atoms: _320  and  _321
REMARK  130  A    between atoms: _320  and  _323
REMARK  131  A    between atoms: _323  and  _324
REMARK  132  A    between atoms: _327  and  _329
REMARK  133  A    between atoms: _329  and  _330
REMARK  134  A    between atoms: _329  and  _332
REMARK  135  A    between atoms: _332  and  _333
REMARK  136  A    between atoms: _336  and  _338
REMARK  137  A    between atoms: _338  and  _339
REMARK  138  A    between atoms: _338  and  _341
REMARK  139  A    between atoms: _344  and  _346
REMARK  140  A    between atoms: _346  and  _347
REMARK  141  A    between atoms: _346  and  _349
REMARK  142  A    between atoms: _349  and  _350
REMARK  143  A    between atoms: _350  and  _351
REMARK  144  A    between atoms: _351  and  _352
REMARK  145  A    between atoms: _352  and  _353
REMARK  146  A    between atoms: _357  and  _359
REMARK  147  A    between atoms: _359  and  _360
REMARK  148  A    between atoms: _359  and  _362
REMARK  149  A    between atoms: _362  and  _363
REMARK  150  A    between atoms: _363  and  _364
REMARK  151  A    between atoms: _366  and  _368
REMARK  152  A    between atoms: _368  and  _369
REMARK  153  A    between atoms: _368  and  _371
REMARK  154  A    between atoms: _371  and  _372
REMARK  155  A    between atoms: _375  and  _377
REMARK  156  A    between atoms: _377  and  _378
REMARK  157  A    between atoms: _380  and  _382
REMARK  158  A    between atoms: _382  and  _383
REMARK  159  A    between atoms: _385  and  _387
REMARK  160  A    between atoms: _387  and  _388
REMARK  161  A    between atoms: _387  and  _390
REMARK  162  A    between atoms: _390  and  _391
REMARK  163  A    between atoms: _394  and  _396
REMARK  164  A    between atoms: _396  and  _397
REMARK  165  A    between atoms: _399  and  _401
REMARK  166  A    between atoms: _401  and  _402
REMARK  167  A    between atoms: _404  and  _406
REMARK  168  A    between atoms: _406  and  _407
REMARK  169  A    between atoms: _406  and  _409
REMARK  170  A    between atoms: _409  and  _410
REMARK  171  A    between atoms: _416  and  _418
REMARK  172  A    between atoms: _418  and  _419
REMARK  173  A    between atoms: _418  and  _421
REMARK  174  A    between atoms: _421  and  _422
REMARK  175  A    between atoms: _425  and  _427
REMARK  176  A    between atoms: _427  and  _428
REMARK  177  A    between atoms: _427  and  _430
REMARK  178  A    between atoms: _430  and  _431
REMARK  179  A    between atoms: _435  and  _436
REMARK  180  A    between atoms: _441  and  _443
REMARK  181  A    between atoms: _443  and  _444
REMARK  182  A    between atoms: _443  and  _446
REMARK  183  A    between atoms: _446  and  _447
REMARK  184  A    between atoms: _451  and  _452
REMARK  185  A    between atoms: _457  and  _459
REMARK  186  A    between atoms: _459  and  _460
REMARK  187  A    between atoms: _459  and  _462
REMARK  188  A    between atoms: _465  and  _467
REMARK  189  A    between atoms: _467  and  _468
REMARK  190  A    between atoms: _467  and  _470
REMARK  191  A    between atoms: _470  and  _471
REMARK  192  A    between atoms: _476  and  _478
REMARK  193  A    between atoms: _478  and  _479
REMARK  194  A    between atoms: _478  and  _481
REMARK  195  A    between atoms: _481  and  _482
REMARK  196  A    between atoms: _485  and  _487
REMARK  197  A    between atoms: _487  and  _488
REMARK  198  A    between atoms: _487  and  _490
REMARK  199  A    between atoms: _490  and  _491
REMARK  200  A    between atoms: _494  and  _496
REMARK  201  A    between atoms: _496  and  _497
REMARK  202  A    between atoms: _499  and  _501
REMARK  203  A    between atoms: _501  and  _502
REMARK  204  A    between atoms: _501  and  _504
REMARK  205  A    between atoms: _504  and  _505
REMARK  206  A    between atoms: _505  and  _506
REMARK  207  A    between atoms: _506  and  _507
REMARK  208  A    between atoms: _516  and  _518
REMARK  209  A    between atoms: _518  and  _519
REMARK  210  A    between atoms: _518  and  _521
REMARK  211  A    between atoms: _521  and  _522
REMARK                            x       y       z     vdW  Elec       q    Type
REMARK                         _______ _______ _______ _____ _____    ______ ____
ROOT
ATOM      1  C   GLY A   5      20.596  24.960  15.607  0.00  0.00    +0.243 C 
ATOM      2  N   ALA A   6      21.903  24.866  15.842  0.00  0.00    -0.297 N 
ATOM      3  H   ALA A   6      22.223  24.766  16.827  0.00  0.00    +0.150 HD
ATOM      4  O   GLY A   5      20.132  25.118  14.477  0.00  0.00    -0.273 OA
ENDROOT
BRANCH   2   5
ATOM      5  CA  ALA A   6      22.902  24.896  14.792  0.00  0.00    +0.149 C 
ATOM      6  CB  ALA A   6      23.895  26.018  15.042  0.00  0.00    +0.031 C 
BRANCH   5   7
ATOM      7  C   ALA A   6      23.629  23.556  14.696  0.00  0.00    +0.241 C 
ATOM      8  O   ALA A   6      24.163  23.048  15.672  0.00  0.00    -0.273 OA
ATOM      9  N   ASP A   7      23.638  22.972  13.502  0.00  0.00    -0.297 N 
ATOM     10  H   ASP A   7      23.119  23.421  12.720  0.00  0.00    +0.150 HD
BRANCH   9  11
ATOM     11  CA  ASP A   7      24.348  21.727  13.249  0.00  0.00    +0.160 C 
BRANCH  11  12
ATOM     12  C   ASP A   7      25.839  21.948  13.505  0.00  0.00    +0.241 C 
ATOM     13  O   ASP A   7      26.524  21.058  14.003  0.00  0.00    -0.273 OA
ATOM     14  N   ASP A   8      26.322  23.109  13.063  0.00  0.00    -0.297 N 
ATOM     15  H   ASP A   8      25.647  23.852  12.790  0.00  0.00    +0.150 HD
BRANCH  14  16
ATOM     16  CA  ASP A   8      27.742  23.392  12.942  0.00  0.00    +0.160 C 
BRANCH  16  17
ATOM     17  C   ASP A   8      28.142  24.609  13.748  0.00  0.00    +0.241 C 
ATOM     18  N   THR A   9      29.393  24.603  14.165  0.00  0.00    -0.295 N 
ATOM     19  H   THR A   9      29.970  23.758  13.981  0.00  0.00    +0.150 HD
ATOM     20  O   ASP A   8      27.363  25.533  13.973  0.00  0.00    -0.273 OA
BRANCH  18  21
ATOM     21  CA  THR A   9      30.007  25.719  14.869  0.00  0.00    +0.176 C 
BRANCH  21  22
ATOM     22  C   THR A   9      30.444  26.777  13.864  0.00  0.00    +0.243 C 
ATOM     23  N   VAL A  10      30.033  28.025  14.109  0.00  0.00    -0.298 N 
ATOM     24  H   VAL A  10      29.484  28.207  14.973  0.00  0.00    +0.150 HD
ATOM     25  O   THR A   9      31.131  26.455  12.900  0.00  0.00    -0.273 OA
BRANCH  23  26
ATOM     26  CA  VAL A  10      30.322  29.147  13.213  0.00  0.00    +0.137 C 
BRANCH  26  27
ATOM     27  CB  VAL A  10      29.080  29.631  12.422  0.00  0.00    +0.026 C 
ATOM     28  CG2 VAL A  10      28.251  28.435  11.913  0.00  0.00    +0.002 C 
ATOM     29  CG1 VAL A  10      29.540  30.546  11.275  0.00  0.00    +0.002 C 
ENDBRANCH  26  27
BRANCH  26  30
ATOM     30  C   VAL A  10      30.863  30.297  14.051  0.00  0.00    +0.227 C 
ATOM     31  O   VAL A  10      30.177  30.799  14.951  0.00  0.00    -0.286 OA
ENDBRANCH  26  30
ENDBRANCH  23  26
ENDBRANCH  21  22
BRANCH  21  32
ATOM     32  CB  THR A   9      31.207  25.193  15.667  0.00  0.00    +0.137 C 
ATOM     33  CG2 THR A   9      32.007  26.312  16.304  0.00  0.00    +0.034 C 
BRANCH  32  34
ATOM     34  OG1 THR A   9      30.711  24.335  16.700  0.00  0.00    -0.382 OA
ATOM     35  HG1 THR A   9      30.215  23.582  16.292  0.00  0.00    +0.210 HD
ENDBRANCH  32  34
ENDBRANCH  21  32
ENDBRANCH  18  21
ENDBRANCH  16  17
BRANCH  16  36
ATOM     36  CB  ASP A   8      28.108  23.664  11.482  0.00  0.00    +0.143 C 
BRANCH  36  37
ATOM     37  CG  ASP A   8      27.694  22.550  10.561  0.00  0.00    +0.367 C 
ATOM     38  OD2 ASP A   8      28.017  21.373  10.870  0.00  0.00    -0.246 OA
ATOM     39  OD1 ASP A   8      27.061  22.863   9.528  0.00  0.00    -0.246 OA
ENDBRANCH  36  37
ENDBRANCH  16  36
ENDBRANCH  14  16
ENDBRANCH  11  12
BRANCH  11  40
ATOM     40  CB  ASP A   7      24.213  21.271  11.792  0.00  0.00    +0.143 C 
BRANCH  40  41
ATOM     41  CG  ASP A   7      22.784  20.931  11.347  0.00  0.00    +0.367 C 
ATOM     42  OD2 ASP A   7      21.870  20.744  12.174  0.00  0.00    -0.246 OA
ATOM     43  OD1 ASP A   7      22.612  20.835  10.102  0.00  0.00    -0.246 OA
ENDBRANCH  40  41
ENDBRANCH  11  40
ENDBRANCH   9  11
ENDBRANCH   5   7
ENDBRANCH   2   5
BRANCH   1  44
ATOM     44  CA  GLY A   5      19.658  24.871  16.795  0.00  0.00    +0.176 C 
BRANCH  44  46
ATOM     45  C   THR A   4      20.710  23.516  18.550  0.00  0.00    +0.243 C 
ATOM     46  N   GLY A   5      20.297  24.697  18.097  0.00  0.00    -0.295 N 
ATOM     47  H   GLY A   5      20.436  25.535  18.698  0.00  0.00    +0.150 HD
ATOM     48  O   THR A   4      20.531  22.456  17.950  0.00  0.00    -0.273 OA
BRANCH  45  49
ATOM     49  CA  THR A   4      21.449  23.509  19.889  0.00  0.00    +0.176 C 
BRANCH  49  51
ATOM     50  C   ASP A   3      22.946  25.396  19.647  0.00  0.00    +0.241 C 
ATOM     51  N   THR A   4      21.951  24.818  20.308  0.00  0.00    -0.295 N 
ATOM     52  H   THR A   4      21.526  25.297  21.127  0.00  0.00    +0.150 HD
ATOM     53  O   ASP A   3      23.429  24.911  18.606  0.00  0.00    -0.273 OA
BRANCH  50  54
ATOM     54  CA  ASP A   3      23.401  26.748  20.171  0.00  0.00    +0.160 C 
BRANCH  54  57
ATOM     55  C   LEU A   2      24.506  27.167  22.287  0.00  0.00    +0.241 C 
ATOM     56  O   LEU A   2      23.495  27.617  22.822  0.00  0.00    -0.273 OA
ATOM     57  N   ASP A   3      24.506  26.605  21.078  0.00  0.00    -0.297 N 
ATOM     58  H   ASP A   3      25.331  26.046  20.782  0.00  0.00    +0.150 HD
BRANCH  55  59
ATOM     59  CA  LEU A   2      25.843  27.268  23.007  0.00  0.00    +0.149 C 
BRANCH  59  61
ATOM     60  C   LEU A   1      26.593  29.391  22.101  0.00  0.00    +0.238 C 
ATOM     61  N   LEU A   2      26.194  28.671  23.146  0.00  0.00    -0.297 N 
ATOM     62  H   LEU A   2      26.132  29.121  24.081  0.00  0.00    +0.150 HD
ATOM     63  O   LEU A   1      26.780  28.900  20.982  0.00  0.00    -0.274 OA
BRANCH  60  64
ATOM     64  CA  LEU A   1      26.786  30.882  22.325  0.00  0.00    +0.145 C 
BRANCH  64  65
ATOM     65  N   LEU A   1      28.129  31.300  21.933  0.00  0.00    -0.238 NA
ATOM     66  H   LEU A   1      28.304  31.516  20.931  0.00  0.00    +0.142 HD
ENDBRANCH  64  65
BRANCH  64  67
ATOM     67  CB  LEU A   1      25.790  31.665  21.473  0.00  0.00    +0.026 C 
BRANCH  67  68
ATOM     68  CG  LEU A   1      24.299  31.501  21.729  0.00  0.00    +0.002 C 
ATOM     69  CD2 LEU A   1      23.919  32.140  23.053  0.00  0.00    +0.000 C 
ATOM     70  CD1 LEU A   1      23.546  32.125  20.561  0.00  0.00    +0.000 C 
ENDBRANCH  67  68
ENDBRANCH  64  67
ENDBRANCH  60  64
ENDBRANCH  59  61
BRANCH  59  71
ATOM     71  CB  LEU A   2      25.800  26.574  24.379  0.00  0.00    +0.029 C 
BRANCH  71  72
ATOM     72  CG  LEU A   2      27.067  26.657  25.213  0.00  0.00    +0.002 C 
ATOM     73  CD2 LEU A   2      26.900  25.927  26.549  0.00  0.00    +0.000 C 
ATOM     74  CD1 LEU A   2      28.295  26.132  24.452  0.00  0.00    +0.000 C 
ENDBRANCH  71  72
ENDBRANCH  59  71
ENDBRANCH  55  59
ENDBRANCH  54  57
BRANCH  54  75
ATOM     75  CB  ASP A   3      23.829  27.693  19.037  0.00  0.00    +0.143 C 
BRANCH  75  76
ATOM     76  CG  ASP A   3      22.702  28.059  18.091  0.00  0.00    +0.367 C 
ATOM     77  OD2 ASP A   3      21.600  27.481  18.186  0.00  0.00    -0.246 OA
ATOM     78  OD1 ASP A   3      22.937  28.925  17.234  0.00  0.00    -0.246 OA
ENDBRANCH  75  76
ENDBRANCH  54  75
ENDBRANCH  50  54
ENDBRANCH  49  51
BRANCH  49  79
ATOM     79  CB  THR A   4      20.533  22.907  20.961  0.00  0.00    +0.137 C 
ATOM     80  CG2 THR A   4      21.324  22.694  22.271  0.00  0.00    +0.034 C 
BRANCH  79  81
ATOM     81  OG1 THR A   4      19.421  23.792  21.193  0.00  0.00    -0.382 OA
ATOM     82  HG1 THR A   4      18.913  23.909  20.351  0.00  0.00    +0.210 HD
ENDBRANCH  79  81
ENDBRANCH  49  79
ENDBRANCH  45  49
ENDBRANCH  44  46
ENDBRANCH   1  44
TORSDOF 35
REMARK  Name = ../refined-set-2016/4djr/4djr_pocket.pdb
REMARK  211 active torsions:
REMARK  status: ('A' for Active; 'I' for Inactive)
REMARK    1  A    between atoms: _1  and  _3
REMARK    2  A    between atoms: _3  and  _4
REMARK    3  A    between atoms: _3  and  _6
REMARK    4  A    between atoms: _6  and  _7
REMARK    5  A    between atoms: _7  and  _8
REMARK    6  A    between atoms: _8  and  _9
REMARK    7  A    between atoms: _18  and  _20
REMARK    8  A    between atoms: _20  and  _21
REMARK    9  A    between atoms: _20  and  _23
REMARK   10  A    between atoms: _23  and  _24
REMARK   11  A    between atoms: _27  and  _29
REMARK   12  A    between atoms: _29  and  _30
REMARK   13  A    between atoms: _29  and  _32
REMARK   14  A    between atoms: _32  and  _33
REMARK   15  A    between atoms: _36  and  _38
REMARK   16  A    between atoms: _38  and  _39
REMARK   17  A    between atoms: _38  and  _41
REMARK   18  A    between atoms: _41  and  _42
REMARK   19  A    between atoms: _45  and  _47
REMARK   20  A    between atoms: _47  and  _48
REMARK   21  A    between atoms: _47  and  _50
REMARK   22  A    between atoms: _50  and  _51
REMARK   23  A    between atoms: _54  and  _56
REMARK   24  A    between atoms: _56  and  _57
REMARK   25  A    between atoms: _59  and  _61
REMARK   26  A    between atoms: _61  and  _62
REMARK   27  A    between atoms: _65  and  _67
REMARK   28  A    between atoms: _67  and  _68
REMARK   29  A    between atoms: _67  and  _70
REMARK   30  A    between atoms: _70  and  _71
REMARK   31  A    between atoms: _74  and  _76
REMARK   32  A    between atoms: _76  and  _77
REMARK   33  A    between atoms: _76  and  _79
REMARK   34  A    between atoms: _79  and  _80
REMARK   35  A    between atoms: _83  and  _85
REMARK   36  A    between atoms: _85  and  _86
REMARK   37  A    between atoms: _85  and  _88
REMARK   38  A    between atoms: _88  and  _89
REMARK   39  A    between atoms: _92  and  _94
REMARK   40  A    between atoms: _94  and  _95
REMARK   41  A    between atoms: _94  and  _97
REMARK   42  A    between atoms: _100  and  _102
REMARK   43  A    between atoms: _102  and  _103
REMARK   44  A    between atoms: _102  and  _105
REMARK   45  A    between atoms: _105  and  _106
REMARK   46  A    between atoms: _109  and  _111
REMARK   47  A    between atoms: _111  and  _112
REMARK   48  A    between atoms: _114  and  _116
REMARK   49  A    between atoms: _116  and  _117
REMARK   50  A    between atoms: _119  and  _121
REMARK   51  A    between atoms: _121  and  _122
REMARK   52  A    between atoms: _121  and  _124
REMARK   53  A    between atoms: _124  and  _125
REMARK   54  A    between atoms: _128  and  _130
REMARK   55  A    between atoms: _130  and  _131
REMARK   56  A    between atoms: _133  and  _135
REMARK   57  A    between atoms: _135  and  _136
REMARK   58  A    between atoms: _138  and  _140
REMARK   59  A    between atoms: _140  and  _141
REMARK   60  A    between atoms: _140  and  _143
REMARK   61  A    between atoms: _143  and  _144
REMARK   62  A    between atoms: _150  and  _152
REMARK   63  A    between atoms: _152  and  _153
REMARK   64  A    between atoms: _152  and  _155
REMARK   65  A    between atoms: _155  and  _156
REMARK   66  A    between atoms: _159  and  _161
REMARK   67  A    between atoms: _161  and  _162
REMARK   68  A    between atoms: _161  and  _164
REMARK   69  A    between atoms: _164  and  _165
REMARK   70  A    between atoms: _168  and  _170
REMARK   71  A    between atoms: _170  and  _171
REMARK   72  A    between atoms: _170  and  _173
REMARK   73  A    between atoms: _173  and  _174
REMARK   74  A    between atoms: _178  and  _179
REMARK   75  A    between atoms: _184  and  _186
REMARK   76  A    between atoms: _186  and  _187
REMARK   77  A    between atoms: _186  and  _189
REMARK   78  A    between atoms: _192  and  _194
REMARK   79  A    between atoms: _194  and  _195
REMARK   80  A    between atoms: _194  and  _197
REMARK   81  A    between atoms: _197  and  _198
REMARK   82  A    between atoms: _203  and  _205
REMARK   83  A    between atoms: _205  and  _206
REMARK   84  A    between atoms: _205  and  _208
REMARK   85  A    between atoms: _208  and  _209
REMARK   86  A    between atoms: _212  and  _214
REMARK   87  A    between atoms: _214  and  _215
REMARK   88  A    between atoms: _217  and  _219
REMARK   89  A    between atoms: _219  and  _220
REMARK   90  A    between atoms: _219  and  _222
REMARK   91  A    between atoms: _222  and  _223
REMARK   92  A    between atoms: _223  and  _224
REMARK   93  A    between atoms: _224  and  _225
REMARK   94  A    between atoms: _234  and  _236
REMARK   95  A    between atoms: _236  and  _237
REMARK   96  A    between atoms: _236  and  _239
REMARK   97  A    between atoms: _239  and  _240
REMARK   98  A    between atoms: _245  and  _247
REMARK   99  A    between atoms: _247  and  _248
REMARK  100  A    between atoms: _247  and  _250
REMARK  101  A    between atoms: _250  and  _251
REMARK  102  A    between atoms: _251  and  _252
REMARK  103  A    between atoms: _252  and  _253
REMARK  104  A    between atoms: _262  and  _264
REMARK  105  A    between atoms: _264  and  _265
REMARK  106  A    between atoms: _264  and  _267
REMARK  107  A    between atoms: _267  and  _268
REMARK  108  A    between atoms: _271  and  _273
REMARK  109  A    between atoms: _273  and  _274
REMARK  110  A    between atoms: _273  and  _276
REMARK  111  A    between atoms: _276  and  _277
REMARK  112  A    between atoms: _280  and  _282
REMARK  113  A    between atoms: _282  and  _283
REMARK  114  A    between atoms: _282  and  _285
REMARK  115  A    between atoms: _285  and  _286
REMARK  116  A    between atoms: _289  and  _291
REMARK  117  A    between atoms: _291  and  _292
REMARK  118  A    between atoms: _291  and  _294
REMARK  119  A    between atoms: _294  and  _295
REMARK  120  A    between atoms: _298  and  _300
REMARK  121  A    between atoms: _300  and  _301
REMARK  122  A    between atoms: _303  and  _305
REMARK  123  A    between atoms: _305  and  _306
REMARK  124  A    between atoms: _309  and  _311
REMARK  125  A    between atoms: _311  and  _312
REMARK  126  A    between atoms: _311  and  _314
REMARK  127  A    between atoms: _314  and  _315
REMARK  128  A    between atoms: _318  and  _320
REMARK  129  A    between atoms: _320  and  _321
REMARK  130  A    between atoms: _320  and  _323
REMARK  131  A    between atoms: _323  and  _324
REMARK  132  A    between atoms: _327  and  _329
REMARK  133  A    between atoms: _329  and  _330
REMARK  134  A    between atoms: _329  and  _332
REMARK  135  A    between atoms: _332  and  _333
REMARK  136  A    between atoms: _336  and  _338
REMARK  137  A    between atoms: _338  and  _339
REMARK  138  A    between atoms: _338  and  _341
REMARK  139  A    between atoms: _344  and  _346
REMARK  140  A    between atoms: _346  and  _347
REMARK  141  A    between atoms: _346  and  _349
REMARK  142  A    between atoms: _349  and  _350
REMARK  143  A    between atoms: _350  and  _351
REMARK  144  A    between atoms: _351  and  _352
REMARK  145  A    between atoms: _352  and  _353
REMARK  146  A    between atoms: _357  and  _359
REMARK  147  A    between atoms: _359  and  _360
REMARK  148  A    between atoms: _359  and  _362
REMARK  149  A    between atoms: _362  and  _363
REMARK  150  A    between atoms: _363  and  _364
REMARK  151  A    between atoms: _366  and  _368
REMARK  152  A    between atoms: _368  and  _369
REMARK  153  A    between atoms: _368  and  _371
REMARK  154  A    between atoms: _371  and  _372
REMARK  155  A    between atoms: _375  and  _377
REMARK  156  A    between atoms: _377  and  _378
REMARK  157  A    between atoms: _380  and  _382
REMARK  158  A    between atoms: _382  and  _383
REMARK  159  A    between atoms: _385  and  _387
REMARK  160  A    between atoms: _387  and  _388
REMARK  161  A    between atoms: _387  and  _390
REMARK  162  A    between atoms: _390  and  _391
REMARK  163  A    between atoms: _394  and  _396
REMARK  164  A    between atoms: _396  and  _397
REMARK  165  A    between atoms: _399  and  _401
REMARK  166  A    between atoms: _401  and  _402
REMARK  167  A    between atoms: _404  and  _406
REMARK  168  A    between atoms: _406  and  _407
REMARK  169  A    between atoms: _406  and  _409
REMARK  170  A    between atoms: _409  and  _410
REMARK  171  A    between atoms: _416  and  _418
REMARK  172  A    between atoms: _418  and  _419
REMARK  173  A    between atoms: _418  and  _421
REMARK  174  A    between atoms: _421  and  _422
REMARK  175  A    between atoms: _425  and  _427
REMARK  176  A    between atoms: _427  and  _428
REMARK  177  A    between atoms: _427  and  _430
REMARK  178  A    between atoms: _430  and  _431
REMARK  179  A    between atoms: _435  and  _436
REMARK  180  A    between atoms: _441  and  _443
REMARK  181  A    between atoms: _443  and  _444
REMARK  182  A    between atoms: _443  and  _446
REMARK  183  A    between atoms: _446  and  _447
REMARK  184  A    between atoms: _451  and  _452
REMARK  185  A    between atoms: _457  and  _459
REMARK  186  A    between atoms: _459  and  _460
REMARK  187  A    between atoms: _459  and  _462
REMARK  188  A    between atoms: _465  and  _467
REMARK  189  A    between atoms: _467  and  _468
REMARK  190  A    between atoms: _467  and  _470
REMARK  191  A    between atoms: _470  and  _471
REMARK  192  A    between atoms: _476  and  _478
REMARK  193  A    between atoms: _478  and  _479
REMARK  194  A    between atoms: _478  and  _481
REMARK  195  A    between atoms: _481  and  _482
REMARK  196  A    between atoms: _485  and  _487
REMARK  197  A    between atoms: _487  and  _488
REMARK  198  A    between atoms: _487  and  _490
REMARK  199  A    between atoms: _490  and  _491
REMARK  200  A    between atoms: _494  and  _496
REMARK  201  A    between atoms: _496  and  _497
REMARK  202  A    between atoms: _499  and  _501
REMARK  203  A    between atoms: _501  and  _502
REMARK  204  A    between atoms: _501  and  _504
REMARK  205  A    between atoms: _504  and  _505
REMARK  206  A    between atoms: _505  and  _506
REMARK  207  A    between atoms: _506  and  _507
REMARK  208  A    between atoms: _516  and  _518
REMARK  209  A    between atoms: _518  and  _519
REMARK  210  A    between atoms: _518  and  _521
REMARK  211  A    between atoms: _521  and  _522
REMARK                            x       y       z     vdW  Elec       q    Type
REMARK                         _______ _______ _______ _____ _____    ______ ____
ROOT
ATOM      1  C   ILE A   4      16.902  33.394   8.160  0.00  0.00    +0.241 C 
ATOM      2  N   GLY A   5      17.992  34.117   7.931  0.00  0.00    -0.295 N 
ATOM      3  H   GLY A   5      18.879  33.868   8.413  0.00  0.00    +0.150 HD
ATOM      4  O   ILE A   4      15.849  33.558   7.544  0.00  0.00    -0.273 OA
ENDROOT
BRANCH   2   5
ATOM      5  CA  GLY A   5      17.971  35.253   7.017  0.00  0.00    +0.176 C 
BRANCH   5   6
ATOM      6  C   GLY A   5      18.456  35.013   5.605  0.00  0.00    +0.243 C 
ATOM      7  N   GLY A   6      18.886  33.786   5.315  0.00  0.00    -0.295 N 
ATOM      8  H   GLY A   6      18.794  33.045   6.039  0.00  0.00    +0.150 HD
ATOM      9  O   GLY A   5      18.397  35.919   4.779  0.00  0.00    -0.273 OA
BRANCH   7  10
ATOM     10  CA  GLY A   6      19.479  33.434   4.033  0.00  0.00    +0.176 C 
BRANCH  10  11
ATOM     11  C   GLY A   6      20.839  32.778   4.179  0.00  0.00    +0.243 C 
ATOM     12  O   GLY A   6      21.168  32.254   5.237  0.00  0.00    -0.273 OA
ATOM     13  N   PHE A   7      21.612  32.800   3.098  0.00  0.00    -0.297 N 
ATOM     14  H   PHE A   7      21.299  33.364   2.282  0.00  0.00    +0.150 HD
BRANCH  13  15
ATOM     15  CA  PHE A   7      22.866  32.082   2.992  0.00  0.00    +0.153 C 
BRANCH  15  16
ATOM     16  C   PHE A   7      24.051  33.024   3.069  0.00  0.00    +0.241 C 
ATOM     17  N   ILE A   8      25.124  32.517   3.670  0.00  0.00    -0.298 N 
ATOM     18  H   ILE A   8      25.046  31.580   4.115  0.00  0.00    +0.150 HD
ATOM     19  O   PHE A   7      23.972  34.187   2.635  0.00  0.00    -0.273 OA
BRANCH  17  20
ATOM     20  CA  ILE A   8      26.397  33.207   3.734  0.00  0.00    +0.137 C 
BRANCH  20  21
ATOM     21  C   ILE A   8      27.518  32.274   3.265  0.00  0.00    +0.227 C 
ATOM     22  O   ILE A   8      27.384  31.053   3.251  0.00  0.00    -0.286 OA
ENDBRANCH  20  21
BRANCH  20  23
ATOM     23  CB  ILE A   8      26.710  33.724   5.166  0.00  0.00    +0.026 C 
ATOM     24  CG2 ILE A   8      25.636  34.737   5.626  0.00  0.00    +0.002 C 
BRANCH  23  25
ATOM     25  CG1 ILE A   8      26.845  32.562   6.163  0.00  0.00    +0.002 C 
ATOM     26  CD1 ILE A   8      27.419  32.961   7.512  0.00  0.00    +0.000 C 
ENDBRANCH  23  25
ENDBRANCH  20  23
ENDBRANCH  17  20
ENDBRANCH  15  16
BRANCH  15  27
ATOM     27  CB  PHE A   7      22.871  31.248   1.698  0.00  0.00    +0.055 C 
BRANCH  27  28
ATOM     28  CG  PHE A   7      22.084  29.988   1.825  0.00  0.00    -0.020 A 
ATOM     29  CD2 PHE A   7      22.731  28.779   2.019  0.00  0.00    -0.004 A 
ATOM     30  CE2 PHE A   7      22.000  27.603   2.162  0.00  0.00    -0.000 A 
ATOM     31  CZ  PHE A   7      20.631  27.648   2.160  0.00  0.00    -0.000 A 
ATOM     32  CE1 PHE A   7      19.968  28.843   1.985  0.00  0.00    -0.000 A 
ATOM     33  CD1 PHE A   7      20.696  30.014   1.822  0.00  0.00    -0.004 A 
ENDBRANCH  27  28
ENDBRANCH  15  27
ENDBRANCH  13  15
ENDBRANCH  10  11
ENDBRANCH   7  10
ENDBRANCH   5   6
ENDBRANCH   2   5
BRANCH   1  34
ATOM     34  CA  ILE A   4      17.029  32.283   9.186  0.00  0.00    +0.149 C 
BRANCH  34  36
ATOM     35  C   GLY A   3      18.872  31.095   8.192  0.00  0.00    +0.243 C 
ATOM     36  N   ILE A   4      18.369  31.746   9.226  0.00  0.00    -0.297 N 
ATOM     37  H   ILE A   4      18.947  31.874  10.081  0.00  0.00    +0.150 HD
ATOM     38  O   GLY A   3      18.301  31.022   7.100  0.00  0.00    -0.273 OA
BRANCH  35  39
ATOM     39  CA  GLY A   3      20.213  30.450   8.444  0.00  0.00    +0.176 C 
BRANCH  39  42
ATOM     40  C   GLY A   2      21.467  29.095   6.872  0.00  0.00    +0.243 C 
ATOM     41  O   GLY A   2      21.592  28.165   7.662  0.00  0.00    -0.273 OA
ATOM     42  N   GLY A   3      20.868  30.235   7.177  0.00  0.00    -0.295 N 
ATOM     43  H   GLY A   3      20.870  31.004   6.477  0.00  0.00    +0.150 HD
BRANCH  40  44
ATOM     44  CA  GLY A   2      22.019  29.012   5.470  0.00  0.00    +0.176 C 
BRANCH  44  46
ATOM     45  C   ILE A   1      24.392  28.729   5.070  0.00  0.00    +0.238 C 
ATOM     46  N   GLY A   2      23.233  28.210   5.451  0.00  0.00    -0.296 N 
ATOM     47  H   GLY A   2      23.191  27.212   5.741  0.00  0.00    +0.150 HD
ATOM     48  O   ILE A   1      24.553  29.920   4.810  0.00  0.00    -0.274 OA
BRANCH  45  49
ATOM     49  CA  ILE A   1      25.559  27.760   5.018  0.00  0.00    +0.145 C 
BRANCH  49  50
ATOM     50  N   ILE A   1      26.568  28.215   4.057  0.00  0.00    -0.238 NA
ATOM     51  H   ILE A   1      26.884  29.206   4.083  0.00  0.00    +0.142 HD
ENDBRANCH  49  50
BRANCH  49  52
ATOM     52  CB  ILE A   1      26.110  27.558   6.452  0.00  0.00    +0.025 C 
ATOM     53  CG2 ILE A   1      27.174  26.434   6.458  0.00  0.00    +0.002 C 
BRANCH  52  54
ATOM     54  CG1 ILE A   1      26.625  28.881   7.053  0.00  0.00    +0.002 C 
ATOM     55  CD1 ILE A   1      27.052  28.750   8.522  0.00  0.00    +0.000 C 
ENDBRANCH  52  54
ENDBRANCH  49  52
ENDBRANCH  45  49
ENDBRANCH  44  46
ENDBRANCH  40  44
ENDBRANCH  39  42
ENDBRANCH  35  39
ENDBRANCH  34  36
BRANCH  34  56
ATOM     56  CB  ILE A   4      16.595  32.754  10.593  0.00  0.00    +0.027 C 
ATOM     57  CG2 ILE A   4      17.029  34.186  10.851  0.00  0.00    +0.002 C 
BRANCH  56  58
ATOM     58  CG1 ILE A   4      15.090  32.564  10.758  0.00  0.00    +0.002 C 
ATOM     59  CD1 ILE A   4      14.593  32.839  12.170  0.00  0.00    +0.000 C 
ENDBRANCH  56  58
ENDBRANCH  34  56
ENDBRANCH   1  34
TORSDOF 24
REMARK  Name = ../refined-set-2016/4djr/4djr_pocket.pdb
REMARK  211 active torsions:
REMARK  status: ('A' for Active; 'I' for Inactive)
REMARK    1  A    between atoms: _1  and  _3
REMARK    2  A    between atoms: _3  and  _4
REMARK    3  A    between atoms: _3  and  _6
REMARK    4  A    between atoms: _6  and  _7
REMARK    5  A    between atoms: _7  and  _8
REMARK    6  A    between atoms: _8  and  _9
REMARK    7  A    between atoms: _18  and  _20
REMARK    8  A    between atoms: _20  and  _21
REMARK    9  A    between atoms: _20  and  _23
REMARK   10  A    between atoms: _23  and  _24
REMARK   11  A    between atoms: _27  and  _29
REMARK   12  A    between atoms: _29  and  _30
REMARK   13  A    between atoms: _29  and  _32
REMARK   14  A    between atoms: _32  and  _33
REMARK   15  A    between atoms: _36  and  _38
REMARK   16  A    between atoms: _38  and  _39
REMARK   17  A    between atoms: _38  and  _41
REMARK   18  A    between atoms: _41  and  _42
REMARK   19  A    between atoms: _45  and  _47
REMARK   20  A    between atoms: _47  and  _48
REMARK   21  A    between atoms: _47  and  _50
REMARK   22  A    between atoms: _50  and  _51
REMARK   23  A    between atoms: _54  and  _56
REMARK   24  A    between atoms: _56  and  _57
REMARK   25  A    between atoms: _59  and  _61
REMARK   26  A    between atoms: _61  and  _62
REMARK   27  A    between atoms: _65  and  _67
REMARK   28  A    between atoms: _67  and  _68
REMARK   29  A    between atoms: _67  and  _70
REMARK   30  A    between atoms: _70  and  _71
REMARK   31  A    between atoms: _74  and  _76
REMARK   32  A    between atoms: _76  and  _77
REMARK   33  A    between atoms: _76  and  _79
REMARK   34  A    between atoms: _79  and  _80
REMARK   35  A    between atoms: _83  and  _85
REMARK   36  A    between atoms: _85  and  _86
REMARK   37  A    between atoms: _85  and  _88
REMARK   38  A    between atoms: _88  and  _89
REMARK   39  A    between atoms: _92  and  _94
REMARK   40  A    between atoms: _94  and  _95
REMARK   41  A    between atoms: _94  and  _97
REMARK   42  A    between atoms: _100  and  _102
REMARK   43  A    between atoms: _102  and  _103
REMARK   44  A    between atoms: _102  and  _105
REMARK   45  A    between atoms: _105  and  _106
REMARK   46  A    between atoms: _109  and  _111
REMARK   47  A    between atoms: _111  and  _112
REMARK   48  A    between atoms: _114  and  _116
REMARK   49  A    between atoms: _116  and  _117
REMARK   50  A    between atoms: _119  and  _121
REMARK   51  A    between atoms: _121  and  _122
REMARK   52  A    between atoms: _121  and  _124
REMARK   53  A    between atoms: _124  and  _125
REMARK   54  A    between atoms: _128  and  _130
REMARK   55  A    between atoms: _130  and  _131
REMARK   56  A    between atoms: _133  and  _135
REMARK   57  A    between atoms: _135  and  _136
REMARK   58  A    between atoms: _138  and  _140
REMARK   59  A    between atoms: _140  and  _141
REMARK   60  A    between atoms: _140  and  _143
REMARK   61  A    between atoms: _143  and  _144
REMARK   62  A    between atoms: _150  and  _152
REMARK   63  A    between atoms: _152  and  _153
REMARK   64  A    between atoms: _152  and  _155
REMARK   65  A    between atoms: _155  and  _156
REMARK   66  A    between atoms: _159  and  _161
REMARK   67  A    between atoms: _161  and  _162
REMARK   68  A    between atoms: _161  and  _164
REMARK   69  A    between atoms: _164  and  _165
REMARK   70  A    between atoms: _168  and  _170
REMARK   71  A    between atoms: _170  and  _171
REMARK   72  A    between atoms: _170  and  _173
REMARK   73  A    between atoms: _173  and  _174
REMARK   74  A    between atoms: _178  and  _179
REMARK   75  A    between atoms: _184  and  _186
REMARK   76  A    between atoms: _186  and  _187
REMARK   77  A    between atoms: _186  and  _189
REMARK   78  A    between atoms: _192  and  _194
REMARK   79  A    between atoms: _194  and  _195
REMARK   80  A    between atoms: _194  and  _197
REMARK   81  A    between atoms: _197  and  _198
REMARK   82  A    between atoms: _203  and  _205
REMARK   83  A    between atoms: _205  and  _206
REMARK   84  A    between atoms: _205  and  _208
REMARK   85  A    between atoms: _208  and  _209
REMARK   86  A    between atoms: _212  and  _214
REMARK   87  A    between atoms: _214  and  _215
REMARK   88  A    between atoms: _217  and  _219
REMARK   89  A    between atoms: _219  and  _220
REMARK   90  A    between atoms: _219  and  _222
REMARK   91  A    between atoms: _222  and  _223
REMARK   92  A    between atoms: _223  and  _224
REMARK   93  A    between atoms: _224  and  _225
REMARK   94  A    between atoms: _234  and  _236
REMARK   95  A    between atoms: _236  and  _237
REMARK   96  A    between atoms: _236  and  _239
REMARK   97  A    between atoms: _239  and  _240
REMARK   98  A    between atoms: _245  and  _247
REMARK   99  A    between atoms: _247  and  _248
REMARK  100  A    between atoms: _247  and  _250
REMARK  101  A    between atoms: _250  and  _251
REMARK  102  A    between atoms: _251  and  _252
REMARK  103  A    between atoms: _252  and  _253
REMARK  104  A    between atoms: _262  and  _264
REMARK  105  A    between atoms: _264  and  _265
REMARK  106  A    between atoms: _264  and  _267
REMARK  107  A    between atoms: _267  and  _268
REMARK  108  A    between atoms: _271  and  _273
REMARK  109  A    between atoms: _273  and  _274
REMARK  110  A    between atoms: _273  and  _276
REMARK  111  A    between atoms: _276  and  _277
REMARK  112  A    between atoms: _280  and  _282
REMARK  113  A    between atoms: _282  and  _283
REMARK  114  A    between atoms: _282  and  _285
REMARK  115  A    between atoms: _285  and  _286
REMARK  116  A    between atoms: _289  and  _291
REMARK  117  A    between atoms: _291  and  _292
REMARK  118  A    between atoms: _291  and  _294
REMARK  119  A    between atoms: _294  and  _295
REMARK  120  A    between atoms: _298  and  _300
REMARK  121  A    between atoms: _300  and  _301
REMARK  122  A    between atoms: _303  and  _305
REMARK  123  A    between atoms: _305  and  _306
REMARK  124  A    between atoms: _309  and  _311
REMARK  125  A    between atoms: _311  and  _312
REMARK  126  A    between atoms: _311  and  _314
REMARK  127  A    between atoms: _314  and  _315
REMARK  128  A    between atoms: _318  and  _320
REMARK  129  A    between atoms: _320  and  _321
REMARK  130  A    between atoms: _320  and  _323
REMARK  131  A    between atoms: _323  and  _324
REMARK  132  A    between atoms: _327  and  _329
REMARK  133  A    between atoms: _329  and  _330
REMARK  134  A    between atoms: _329  and  _332
REMARK  135  A    between atoms: _332  and  _333
REMARK  136  A    between atoms: _336  and  _338
REMARK  137  A    between atoms: _338  and  _339
REMARK  138  A    between atoms: _338  and  _341
REMARK  139  A    between atoms: _344  and  _346
REMARK  140  A    between atoms: _346  and  _347
REMARK  141  A    between atoms: _346  and  _349
REMARK  142  A    between atoms: _349  and  _350
REMARK  143  A    between atoms: _350  and  _351
REMARK  144  A    between atoms: _351  and  _352
REMARK  145  A    between atoms: _352  and  _353
REMARK  146  A    between atoms: _357  and  _359
REMARK  147  A    between atoms: _359  and  _360
REMARK  148  A    between atoms: _359  and  _362
REMARK  149  A    between atoms: _362  and  _363
REMARK  150  A    between atoms: _363  and  _364
REMARK  151  A    between atoms: _366  and  _368
REMARK  152  A    between atoms: _368  and  _369
REMARK  153  A    between atoms: _368  and  _371
REMARK  154  A    between atoms: _371  and  _372
REMARK  155  A    between atoms: _375  and  _377
REMARK  156  A    between atoms: _377  and  _378
REMARK  157  A    between atoms: _380  and  _382
REMARK  158  A    between atoms: _382  and  _383
REMARK  159  A    between atoms: _385  and  _387
REMARK  160  A    between atoms: _387  and  _388
REMARK  161  A    between atoms: _387  and  _390
REMARK  162  A    between atoms: _390  and  _391
REMARK  163  A    between atoms: _394  and  _396
REMARK  164  A    between atoms: _396  and  _397
REMARK  165  A    between atoms: _399  and  _401
REMARK  166  A    between atoms: _401  and  _402
REMARK  167  A    between atoms: _404  and  _406
REMARK  168  A    between atoms: _406  and  _407
REMARK  169  A    between atoms: _406  and  _409
REMARK  170  A    between atoms: _409  and  _410
REMARK  171  A    between atoms: _416  and  _418
REMARK  172  A    between atoms: _418  and  _419
REMARK  173  A    between atoms: _418  and  _421
REMARK  174  A    between atoms: _421  and  _422
REMARK  175  A    between atoms: _425  and  _427
REMARK  176  A    between atoms: _427  and  _428
REMARK  177  A    between atoms: _427  and  _430
REMARK  178  A    between atoms: _430  and  _431
REMARK  179  A    between atoms: _435  and  _436
REMARK  180  A    between atoms: _441  and  _443
REMARK  181  A    between atoms: _443  and  _444
REMARK  182  A    between atoms: _443  and  _446
REMARK  183  A    between atoms: _446  and  _447
REMARK  184  A    between atoms: _451  and  _452
REMARK  185  A    between atoms: _457  and  _459
REMARK  186  A    between atoms: _459  and  _460
REMARK  187  A    between atoms: _459  and  _462
REMARK  188  A    between atoms: _465  and  _467
REMARK  189  A    between atoms: _467  and  _468
REMARK  190  A    between atoms: _467  and  _470
REMARK  191  A    between atoms: _470  and  _471
REMARK  192  A    between atoms: _476  and  _478
REMARK  193  A    between atoms: _478  and  _479
REMARK  194  A    between atoms: _478  and  _481
REMARK  195  A    between atoms: _481  and  _482
REMARK  196  A    between atoms: _485  and  _487
REMARK  197  A    between atoms: _487  and  _488
REMARK  198  A    between atoms: _487  and  _490
REMARK  199  A    between atoms: _490  and  _491
REMARK  200  A    between atoms: _494  and  _496
REMARK  201  A    between atoms: _496  and  _497
REMARK  202  A    between atoms: _499  and  _501
REMARK  203  A    between atoms: _501  and  _502
REMARK  204  A    between atoms: _501  and  _504
REMARK  205  A    between atoms: _504  and  _505
REMARK  206  A    between atoms: _505  and  _506
REMARK  207  A    between atoms: _506  and  _507
REMARK  208  A    between atoms: _516  and  _518
REMARK  209  A    between atoms: _518  and  _519
REMARK  210  A    between atoms: _518  and  _521
REMARK  211  A    between atoms: _521  and  _522
REMARK                            x       y       z     vdW  Elec       q    Type
REMARK                         _______ _______ _______ _____ _____    ______ ____
ROOT
ATOM      1  CA  LEU A   1      33.253  27.485  10.111  0.00  0.00    +0.133 C 
ENDROOT
BRANCH   1   2
ATOM      2  N   LEU A   1      33.529  26.633  11.256  0.00  0.00    -0.239 NA
ATOM      3  H   LEU A   1      32.793  26.506  11.979  0.00  0.00    +0.142 HD
ENDBRANCH   1   2
BRANCH   1   4
ATOM      4  C   LEU A   1      33.489  28.922  10.538  0.00  0.00    +0.224 C 
ATOM      5  O   LEU A   1      33.140  29.323  11.647  0.00  0.00    -0.287 OA
ENDBRANCH   1   4
BRANCH   1   6
ATOM      6  CB  LEU A   1      31.814  27.307   9.626  0.00  0.00    +0.025 C 
BRANCH   6   7
ATOM      7  CG  LEU A   1      31.358  25.876   9.356  0.00  0.00    +0.002 C 
ATOM      8  CD2 LEU A   1      29.876  25.843   8.964  0.00  0.00    +0.000 C 
ATOM      9  CD1 LEU A   1      32.229  25.238   8.257  0.00  0.00    +0.000 C 
ENDBRANCH   6   7
ENDBRANCH   1   6
TORSDOF 4
REMARK  Name = ../refined-set-2016/4djr/4djr_pocket.pdb
REMARK  211 active torsions:
REMARK  status: ('A' for Active; 'I' for Inactive)
REMARK    1  A    between atoms: _1  and  _3
REMARK    2  A    between atoms: _3  and  _4
REMARK    3  A    between atoms: _3  and  _6
REMARK    4  A    between atoms: _6  and  _7
REMARK    5  A    between atoms: _7  and  _8
REMARK    6  A    between atoms: _8  and  _9
REMARK    7  A    between atoms: _18  and  _20
REMARK    8  A    between atoms: _20  and  _21
REMARK    9  A    between atoms: _20  and  _23
REMARK   10  A    between atoms: _23  and  _24
REMARK   11  A    between atoms: _27  and  _29
REMARK   12  A    between atoms: _29  and  _30
REMARK   13  A    between atoms: _29  and  _32
REMARK   14  A    between atoms: _32  and  _33
REMARK   15  A    between atoms: _36  and  _38
REMARK   16  A    between atoms: _38  and  _39
REMARK   17  A    between atoms: _38  and  _41
REMARK   18  A    between atoms: _41  and  _42
REMARK   19  A    between atoms: _45  and  _47
REMARK   20  A    between atoms: _47  and  _48
REMARK   21  A    between atoms: _47  and  _50
REMARK   22  A    between atoms: _50  and  _51
REMARK   23  A    between atoms: _54  and  _56
REMARK   24  A    between atoms: _56  and  _57
REMARK   25  A    between atoms: _59  and  _61
REMARK   26  A    between atoms: _61  and  _62
REMARK   27  A    between atoms: _65  and  _67
REMARK   28  A    between atoms: _67  and  _68
REMARK   29  A    between atoms: _67  and  _70
REMARK   30  A    between atoms: _70  and  _71
REMARK   31  A    between atoms: _74  and  _76
REMARK   32  A    between atoms: _76  and  _77
REMARK   33  A    between atoms: _76  and  _79
REMARK   34  A    between atoms: _79  and  _80
REMARK   35  A    between atoms: _83  and  _85
REMARK   36  A    between atoms: _85  and  _86
REMARK   37  A    between atoms: _85  and  _88
REMARK   38  A    between atoms: _88  and  _89
REMARK   39  A    between atoms: _92  and  _94
REMARK   40  A    between atoms: _94  and  _95
REMARK   41  A    between atoms: _94  and  _97
REMARK   42  A    between atoms: _100  and  _102
REMARK   43  A    between atoms: _102  and  _103
REMARK   44  A    between atoms: _102  and  _105
REMARK   45  A    between atoms: _105  and  _106
REMARK   46  A    between atoms: _109  and  _111
REMARK   47  A    between atoms: _111  and  _112
REMARK   48  A    between atoms: _114  and  _116
REMARK   49  A    between atoms: _116  and  _117
REMARK   50  A    between atoms: _119  and  _121
REMARK   51  A    between atoms: _121  and  _122
REMARK   52  A    between atoms: _121  and  _124
REMARK   53  A    between atoms: _124  and  _125
REMARK   54  A    between atoms: _128  and  _130
REMARK   55  A    between atoms: _130  and  _131
REMARK   56  A    between atoms: _133  and  _135
REMARK   57  A    between atoms: _135  and  _136
REMARK   58  A    between atoms: _138  and  _140
REMARK   59  A    between atoms: _140  and  _141
REMARK   60  A    between atoms: _140  and  _143
REMARK   61  A    between atoms: _143  and  _144
REMARK   62  A    between atoms: _150  and  _152
REMARK   63  A    between atoms: _152  and  _153
REMARK   64  A    between atoms: _152  and  _155
REMARK   65  A    between atoms: _155  and  _156
REMARK   66  A    between atoms: _159  and  _161
REMARK   67  A    between atoms: _161  and  _162
REMARK   68  A    between atoms: _161  and  _164
REMARK   69  A    between atoms: _164  and  _165
REMARK   70  A    between atoms: _168  and  _170
REMARK   71  A    between atoms: _170  and  _171
REMARK   72  A    between atoms: _170  and  _173
REMARK   73  A    between atoms: _173  and  _174
REMARK   74  A    between atoms: _178  and  _179
REMARK   75  A    between atoms: _184  and  _186
REMARK   76  A    between atoms: _186  and  _187
REMARK   77  A    between atoms: _186  and  _189
REMARK   78  A    between atoms: _192  and  _194
REMARK   79  A    between atoms: _194  and  _195
REMARK   80  A    between atoms: _194  and  _197
REMARK   81  A    between atoms: _197  and  _198
REMARK   82  A    between atoms: _203  and  _205
REMARK   83  A    between atoms: _205  and  _206
REMARK   84  A    between atoms: _205  and  _208
REMARK   85  A    between atoms: _208  and  _209
REMARK   86  A    between atoms: _212  and  _214
REMARK   87  A    between atoms: _214  and  _215
REMARK   88  A    between atoms: _217  and  _219
REMARK   89  A    between atoms: _219  and  _220
REMARK   90  A    between atoms: _219  and  _222
REMARK   91  A    between atoms: _222  and  _223
REMARK   92  A    between atoms: _223  and  _224
REMARK   93  A    between atoms: _224  and  _225
REMARK   94  A    between atoms: _234  and  _236
REMARK   95  A    between atoms: _236  and  _237
REMARK   96  A    between atoms: _236  and  _239
REMARK   97  A    between atoms: _239  and  _240
REMARK   98  A    between atoms: _245  and  _247
REMARK   99  A    between atoms: _247  and  _248
REMARK  100  A    between atoms: _247  and  _250
REMARK  101  A    between atoms: _250  and  _251
REMARK  102  A    between atoms: _251  and  _252
REMARK  103  A    between atoms: _252  and  _253
REMARK  104  A    between atoms: _262  and  _264
REMARK  105  A    between atoms: _264  and  _265
REMARK  106  A    between atoms: _264  and  _267
REMARK  107  A    between atoms: _267  and  _268
REMARK  108  A    between atoms: _271  and  _273
REMARK  109  A    between atoms: _273  and  _274
REMARK  110  A    between atoms: _273  and  _276
REMARK  111  A    between atoms: _276  and  _277
REMARK  112  A    between atoms: _280  and  _282
REMARK  113  A    between atoms: _282  and  _283
REMARK  114  A    between atoms: _282  and  _285
REMARK  115  A    between atoms: _285  and  _286
REMARK  116  A    between atoms: _289  and  _291
REMARK  117  A    between atoms: _291  and  _292
REMARK  118  A    between atoms: _291  and  _294
REMARK  119  A    between atoms: _294  and  _295
REMARK  120  A    between atoms: _298  and  _300
REMARK  121  A    between atoms: _300  and  _301
REMARK  122  A    between atoms: _303  and  _305
REMARK  123  A    between atoms: _305  and  _306
REMARK  124  A    between atoms: _309  and  _311
REMARK  125  A    between atoms: _311  and  _312
REMARK  126  A    between atoms: _311  and  _314
REMARK  127  A    between atoms: _314  and  _315
REMARK  128  A    between atoms: _318  and  _320
REMARK  129  A    between atoms: _320  and  _321
REMARK  130  A    between atoms: _320  and  _323
REMARK  131  A    between atoms: _323  and  _324
REMARK  132  A    between atoms: _327  and  _329
REMARK  133  A    between atoms: _329  and  _330
REMARK  134  A    between atoms: _329  and  _332
REMARK  135  A    between atoms: _332  and  _333
REMARK  136  A    between atoms: _336  and  _338
REMARK  137  A    between atoms: _338  and  _339
REMARK  138  A    between atoms: _338  and  _341
REMARK  139  A    between atoms: _344  and  _346
REMARK  140  A    between atoms: _346  and  _347
REMARK  141  A    between atoms: _346  and  _349
REMARK  142  A    between atoms: _349  and  _350
REMARK  143  A    between atoms: _350  and  _351
REMARK  144  A    between atoms: _351  and  _352
REMARK  145  A    between atoms: _352  and  _353
REMARK  146  A    between atoms: _357  and  _359
REMARK  147  A    between atoms: _359  and  _360
REMARK  148  A    between atoms: _359  and  _362
REMARK  149  A    between atoms: _362  and  _363
REMARK  150  A    between atoms: _363  and  _364
REMARK  151  A    between atoms: _366  and  _368
REMARK  152  A    between atoms: _368  and  _369
REMARK  153  A    between atoms: _368  and  _371
REMARK  154  A    between atoms: _371  and  _372
REMARK  155  A    between atoms: _375  and  _377
REMARK  156  A    between atoms: _377  and  _378
REMARK  157  A    between atoms: _380  and  _382
REMARK  158  A    between atoms: _382  and  _383
REMARK  159  A    between atoms: _385  and  _387
REMARK  160  A    between atoms: _387  and  _388
REMARK  161  A    between atoms: _387  and  _390
REMARK  162  A    between atoms: _390  and  _391
REMARK  163  A    between atoms: _394  and  _396
REMARK  164  A    between atoms: _396  and  _397
REMARK  165  A    between atoms: _399  and  _401
REMARK  166  A    between atoms: _401  and  _402
REMARK  167  A    between atoms: _404  and  _406
REMARK  168  A    between atoms: _406  and  _407
REMARK  169  A    between atoms: _406  and  _409
REMARK  170  A    between atoms: _409  and  _410
REMARK  171  A    between atoms: _416  and  _418
REMARK  172  A    between atoms: _418  and  _419
REMARK  173  A    between atoms: _418  and  _421
REMARK  174  A    between atoms: _421  and  _422
REMARK  175  A    between atoms: _425  and  _427
REMARK  176  A    between atoms: _427  and  _428
REMARK  177  A    between atoms: _427  and  _430
REMARK  178  A    between atoms: _430  and  _431
REMARK  179  A    between atoms: _435  and  _436
REMARK  180  A    between atoms: _441  and  _443
REMARK  181  A    between atoms: _443  and  _444
REMARK  182  A    between atoms: _443  and  _446
REMARK  183  A    between atoms: _446  and  _447
REMARK  184  A    between atoms: _451  and  _452
REMARK  185  A    between atoms: _457  and  _459
REMARK  186  A    between atoms: _459  and  _460
REMARK  187  A    between atoms: _459  and  _462
REMARK  188  A    between atoms: _465  and  _467
REMARK  189  A    between atoms: _467  and  _468
REMARK  190  A    between atoms: _467  and  _470
REMARK  191  A    between atoms: _470  and  _471
REMARK  192  A    between atoms: _476  and  _478
REMARK  193  A    between atoms: _478  and  _479
REMARK  194  A    between atoms: _478  and  _481
REMARK  195  A    between atoms: _481  and  _482
REMARK  196  A    between atoms: _485  and  _487
REMARK  197  A    between atoms: _487  and  _488
REMARK  198  A    between atoms: _487  and  _490
REMARK  199  A    between atoms: _490  and  _491
REMARK  200  A    between atoms: _494  and  _496
REMARK  201  A    between atoms: _496  and  _497
REMARK  202  A    between atoms: _499  and  _501
REMARK  203  A    between atoms: _501  and  _502
REMARK  204  A    between atoms: _501  and  _504
REMARK  205  A    between atoms: _504  and  _505
REMARK  206  A    between atoms: _505  and  _506
REMARK  207  A    between atoms: _506  and  _507
REMARK  208  A    between atoms: _516  and  _518
REMARK  209  A    between atoms: _518  and  _519
REMARK  210  A    between atoms: _518  and  _521
REMARK  211  A    between atoms: _521  and  _522
REMARK                            x       y       z     vdW  Elec       q    Type
REMARK                         _______ _______ _______ _____ _____    ______ ____
ROOT
ATOM      1  CA  VAL A   3      27.617  35.957  16.934  0.00  0.00    +0.149 C 
ENDROOT
BRANCH   1   4
ATOM      2  C   PRO A   2      26.650  37.461  15.273  0.00  0.00    +0.241 C 
ATOM      3  O   PRO A   2      26.915  38.465  15.943  0.00  0.00    -0.273 OA
ATOM      4  N   VAL A   3      26.865  36.226  15.710  0.00  0.00    -0.297 N 
ATOM      5  H   VAL A   3      26.487  35.425  15.165  0.00  0.00    +0.150 HD
BRANCH   2   8
ATOM      6  C   THR A   1      27.467  36.252  12.543  0.00  0.00    +0.244 C 
ATOM      7  N   PRO A   2      26.211  36.488  12.964  0.00  0.00    -0.272 N 
ATOM      8  CA  PRO A   2      25.974  37.598  13.910  0.00  0.00    +0.152 C 
ATOM      9  CB  PRO A   2      24.459  37.584  14.113  0.00  0.00    +0.031 C 
ATOM     10  CG  PRO A   2      23.905  36.754  13.043  0.00  0.00    +0.024 C 
ATOM     11  CD  PRO A   2      24.961  35.777  12.627  0.00  0.00    +0.094 C 
ATOM     12  O   THR A   1      28.425  36.959  12.886  0.00  0.00    -0.273 OA
BRANCH   6  13
ATOM     13  CA  THR A   1      27.702  35.060  11.613  0.00  0.00    +0.172 C 
BRANCH  13  14
ATOM     14  CB  THR A   1      28.047  33.796  12.428  0.00  0.00    +0.135 C 
ATOM     15  CG2 THR A   1      29.364  33.982  13.210  0.00  0.00    +0.034 C 
BRANCH  14  16
ATOM     16  OG1 THR A   1      26.995  33.514  13.341  0.00  0.00    -0.383 OA
ATOM     17  HG1 THR A   1      26.879  34.281  13.956  0.00  0.00    +0.210 HD
ENDBRANCH  14  16
ENDBRANCH  13  14
BRANCH  13  18
ATOM     18  N   THR A   1      28.788  35.382  10.706  0.00  0.00    -0.236 NA
ATOM     19  H   THR A   1      29.730  34.969  10.861  0.00  0.00    +0.142 HD
ENDBRANCH  13  18
ENDBRANCH   6  13
ENDBRANCH   2   8
ENDBRANCH   1   4
BRANCH   1  20
ATOM     20  C   VAL A   3      28.308  34.610  16.801  0.00  0.00    +0.241 C 
ATOM     21  N   ASN A   4      29.335  34.406  17.617  0.00  0.00    -0.297 N 
ATOM     22  H   ASN A   4      29.657  35.183  18.228  0.00  0.00    +0.150 HD
ATOM     23  O   VAL A   3      27.926  33.771  15.982  0.00  0.00    -0.273 OA
BRANCH  21  24
ATOM     24  CA  ASN A   4      30.025  33.119  17.680  0.00  0.00    +0.158 C 
BRANCH  24  25
ATOM     25  C   ASN A   4      29.066  32.068  18.234  0.00  0.00    +0.241 C 
ATOM     26  O   ASN A   4      28.465  32.259  19.297  0.00  0.00    -0.273 OA
ATOM     27  N   ILE A   5      28.902  30.978  17.495  0.00  0.00    -0.298 N 
ATOM     28  H   ILE A   5      29.430  30.891  16.603  0.00  0.00    +0.150 HD
BRANCH  27  29
ATOM     29  CA  ILE A   5      28.001  29.892  17.894  0.00  0.00    +0.137 C 
BRANCH  29  30
ATOM     30  CB  ILE A   5      26.702  29.800  17.038  0.00  0.00    +0.026 C 
ATOM     31  CG2 ILE A   5      25.890  31.097  17.120  0.00  0.00    +0.002 C 
BRANCH  30  32
ATOM     32  CG1 ILE A   5      26.968  29.456  15.566  0.00  0.00    +0.002 C 
ATOM     33  CD1 ILE A   5      25.671  29.273  14.761  0.00  0.00    +0.000 C 
ENDBRANCH  30  32
ENDBRANCH  29  30
BRANCH  29  34
ATOM     34  C   ILE A   5      28.715  28.552  17.967  0.00  0.00    +0.227 C 
ATOM     35  O   ILE A   5      29.480  28.181  17.083  0.00  0.00    -0.286 OA
ENDBRANCH  29  34
ENDBRANCH  27  29
ENDBRANCH  24  25
BRANCH  24  36
ATOM     36  CB  ASN A   4      31.225  33.171  18.623  0.00  0.00    +0.114 C 
BRANCH  36  37
ATOM     37  CG  ASN A   4      32.328  34.082  18.138  0.00  0.00    +0.222 C 
ATOM     38  ND2 ASN A   4      33.011  34.715  19.097  0.00  0.00    -0.329 N 
ATOM     39 HD21 ASN A   4      32.748  34.585  20.095  0.00  0.00    +0.145 HD
ATOM     40 HD22 ASN A   4      33.805  35.337  18.845  0.00  0.00    +0.145 HD
ATOM     41  OD1 ASN A   4      32.597  34.199  16.930  0.00  0.00    -0.275 OA
ENDBRANCH  36  37
ENDBRANCH  24  36
ENDBRANCH  21  24
ENDBRANCH   1  20
BRANCH   1  42
ATOM     42  CB  VAL A   3      26.714  35.914  18.187  0.00  0.00    +0.027 C 
ATOM     43  CG2 VAL A   3      26.026  37.260  18.440  0.00  0.00    +0.002 C 
ATOM     44  CG1 VAL A   3      25.704  34.770  18.071  0.00  0.00    +0.002 C 
ENDBRANCH   1  42
TORSDOF 16
REMARK  Name = ../refined-set-2016/4djr/4djr_pocket.pdb
REMARK  211 active torsions:
REMARK  status: ('A' for Active; 'I' for Inactive)
REMARK    1  A    between atoms: _1  and  _3
REMARK    2  A    between atoms: _3  and  _4
REMARK    3  A    between atoms: _3  and  _6
REMARK    4  A    between atoms: _6  and  _7
REMARK    5  A    between atoms: _7  and  _8
REMARK    6  A    between atoms: _8  and  _9
REMARK    7  A    between atoms: _18  and  _20
REMARK    8  A    between atoms: _20  and  _21
REMARK    9  A    between atoms: _20  and  _23
REMARK   10  A    between atoms: _23  and  _24
REMARK   11  A    between atoms: _27  and  _29
REMARK   12  A    between atoms: _29  and  _30
REMARK   13  A    between atoms: _29  and  _32
REMARK   14  A    between atoms: _32  and  _33
REMARK   15  A    between atoms: _36  and  _38
REMARK   16  A    between atoms: _38  and  _39
REMARK   17  A    between atoms: _38  and  _41
REMARK   18  A    between atoms: _41  and  _42
REMARK   19  A    between atoms: _45  and  _47
REMARK   20  A    between atoms: _47  and  _48
REMARK   21  A    between atoms: _47  and  _50
REMARK   22  A    between atoms: _50  and  _51
REMARK   23  A    between atoms: _54  and  _56
REMARK   24  A    between atoms: _56  and  _57
REMARK   25  A    between atoms: _59  and  _61
REMARK   26  A    between atoms: _61  and  _62
REMARK   27  A    between atoms: _65  and  _67
REMARK   28  A    between atoms: _67  and  _68
REMARK   29  A    between atoms: _67  and  _70
REMARK   30  A    between atoms: _70  and  _71
REMARK   31  A    between atoms: _74  and  _76
REMARK   32  A    between atoms: _76  and  _77
REMARK   33  A    between atoms: _76  and  _79
REMARK   34  A    between atoms: _79  and  _80
REMARK   35  A    between atoms: _83  and  _85
REMARK   36  A    between atoms: _85  and  _86
REMARK   37  A    between atoms: _85  and  _88
REMARK   38  A    between atoms: _88  and  _89
REMARK   39  A    between atoms: _92  and  _94
REMARK   40  A    between atoms: _94  and  _95
REMARK   41  A    between atoms: _94  and  _97
REMARK   42  A    between atoms: _100  and  _102
REMARK   43  A    between atoms: _102  and  _103
REMARK   44  A    between atoms: _102  and  _105
REMARK   45  A    between atoms: _105  and  _106
REMARK   46  A    between atoms: _109  and  _111
REMARK   47  A    between atoms: _111  and  _112
REMARK   48  A    between atoms: _114  and  _116
REMARK   49  A    between atoms: _116  and  _117
REMARK   50  A    between atoms: _119  and  _121
REMARK   51  A    between atoms: _121  and  _122
REMARK   52  A    between atoms: _121  and  _124
REMARK   53  A    between atoms: _124  and  _125
REMARK   54  A    between atoms: _128  and  _130
REMARK   55  A    between atoms: _130  and  _131
REMARK   56  A    between atoms: _133  and  _135
REMARK   57  A    between atoms: _135  and  _136
REMARK   58  A    between atoms: _138  and  _140
REMARK   59  A    between atoms: _140  and  _141
REMARK   60  A    between atoms: _140  and  _143
REMARK   61  A    between atoms: _143  and  _144
REMARK   62  A    between atoms: _150  and  _152
REMARK   63  A    between atoms: _152  and  _153
REMARK   64  A    between atoms: _152  and  _155
REMARK   65  A    between atoms: _155  and  _156
REMARK   66  A    between atoms: _159  and  _161
REMARK   67  A    between atoms: _161  and  _162
REMARK   68  A    between atoms: _161  and  _164
REMARK   69  A    between atoms: _164  and  _165
REMARK   70  A    between atoms: _168  and  _170
REMARK   71  A    between atoms: _170  and  _171
REMARK   72  A    between atoms: _170  and  _173
REMARK   73  A    between atoms: _173  and  _174
REMARK   74  A    between atoms: _178  and  _179
REMARK   75  A    between atoms: _184  and  _186
REMARK   76  A    between atoms: _186  and  _187
REMARK   77  A    between atoms: _186  and  _189
REMARK   78  A    between atoms: _192  and  _194
REMARK   79  A    between atoms: _194  and  _195
REMARK   80  A    between atoms: _194  and  _197
REMARK   81  A    between atoms: _197  and  _198
REMARK   82  A    between atoms: _203  and  _205
REMARK   83  A    between atoms: _205  and  _206
REMARK   84  A    between atoms: _205  and  _208
REMARK   85  A    between atoms: _208  and  _209
REMARK   86  A    between atoms: _212  and  _214
REMARK   87  A    between atoms: _214  and  _215
REMARK   88  A    between atoms: _217  and  _219
REMARK   89  A    between atoms: _219  and  _220
REMARK   90  A    between atoms: _219  and  _222
REMARK   91  A    between atoms: _222  and  _223
REMARK   92  A    between atoms: _223  and  _224
REMARK   93  A    between atoms: _224  and  _225
REMARK   94  A    between atoms: _234  and  _236
REMARK   95  A    between atoms: _236  and  _237
REMARK   96  A    between atoms: _236  and  _239
REMARK   97  A    between atoms: _239  and  _240
REMARK   98  A    between atoms: _245  and  _247
REMARK   99  A    between atoms: _247  and  _248
REMARK  100  A    between atoms: _247  and  _250
REMARK  101  A    between atoms: _250  and  _251
REMARK  102  A    between atoms: _251  and  _252
REMARK  103  A    between atoms: _252  and  _253
REMARK  104  A    between atoms: _262  and  _264
REMARK  105  A    between atoms: _264  and  _265
REMARK  106  A    between atoms: _264  and  _267
REMARK  107  A    between atoms: _267  and  _268
REMARK  108  A    between atoms: _271  and  _273
REMARK  109  A    between atoms: _273  and  _274
REMARK  110  A    between atoms: _273  and  _276
REMARK  111  A    between atoms: _276  and  _277
REMARK  112  A    between atoms: _280  and  _282
REMARK  113  A    between atoms: _282  and  _283
REMARK  114  A    between atoms: _282  and  _285
REMARK  115  A    between atoms: _285  and  _286
REMARK  116  A    between atoms: _289  and  _291
REMARK  117  A    between atoms: _291  and  _292
REMARK  118  A    between atoms: _291  and  _294
REMARK  119  A    between atoms: _294  and  _295
REMARK  120  A    between atoms: _298  and  _300
REMARK  121  A    between atoms: _300  and  _301
REMARK  122  A    between atoms: _303  and  _305
REMARK  123  A    between atoms: _305  and  _306
REMARK  124  A    between atoms: _309  and  _311
REMARK  125  A    between atoms: _311  and  _312
REMARK  126  A    between atoms: _311  and  _314
REMARK  127  A    between atoms: _314  and  _315
REMARK  128  A    between atoms: _318  and  _320
REMARK  129  A    between atoms: _320  and  _321
REMARK  130  A    between atoms: _320  and  _323
REMARK  131  A    between atoms: _323  and  _324
REMARK  132  A    between atoms: _327  and  _329
REMARK  133  A    between atoms: _329  and  _330
REMARK  134  A    between atoms: _329  and  _332
REMARK  135  A    between atoms: _332  and  _333
REMARK  136  A    between atoms: _336  and  _338
REMARK  137  A    between atoms: _338  and  _339
REMARK  138  A    between atoms: _338  and  _341
REMARK  139  A    between atoms: _344  and  _346
REMARK  140  A    between atoms: _346  and  _347
REMARK  141  A    between atoms: _346  and  _349
REMARK  142  A    between atoms: _349  and  _350
REMARK  143  A    between atoms: _350  and  _351
REMARK  144  A    between atoms: _351  and  _352
REMARK  145  A    between atoms: _352  and  _353
REMARK  146  A    between atoms: _357  and  _359
REMARK  147  A    between atoms: _359  and  _360
REMARK  148  A    between atoms: _359  and  _362
REMARK  149  A    between atoms: _362  and  _363
REMARK  150  A    between atoms: _363  and  _364
REMARK  151  A    between atoms: _366  and  _368
REMARK  152  A    between atoms: _368  and  _369
REMARK  153  A    between atoms: _368  and  _371
REMARK  154  A    between atoms: _371  and  _372
REMARK  155  A    between atoms: _375  and  _377
REMARK  156  A    between atoms: _377  and  _378
REMARK  157  A    between atoms: _380  and  _382
REMARK  158  A    between atoms: _382  and  _383
REMARK  159  A    between atoms: _385  and  _387
REMARK  160  A    between atoms: _387  and  _388
REMARK  161  A    between atoms: _387  and  _390
REMARK  162  A    between atoms: _390  and  _391
REMARK  163  A    between atoms: _394  and  _396
REMARK  164  A    between atoms: _396  and  _397
REMARK  165  A    between atoms: _399  and  _401
REMARK  166  A    between atoms: _401  and  _402
REMARK  167  A    between atoms: _404  and  _406
REMARK  168  A    between atoms: _406  and  _407
REMARK  169  A    between atoms: _406  and  _409
REMARK  170  A    between atoms: _409  and  _410
REMARK  171  A    between atoms: _416  and  _418
REMARK  172  A    between atoms: _418  and  _419
REMARK  173  A    between atoms: _418  and  _421
REMARK  174  A    between atoms: _421  and  _422
REMARK  175  A    between atoms: _425  and  _427
REMARK  176  A    between atoms: _427  and  _428
REMARK  177  A    between atoms: _427  and  _430
REMARK  178  A    between atoms: _430  and  _431
REMARK  179  A    between atoms: _435  and  _436
REMARK  180  A    between atoms: _441  and  _443
REMARK  181  A    between atoms: _443  and  _444
REMARK  182  A    between atoms: _443  and  _446
REMARK  183  A    between atoms: _446  and  _447
REMARK  184  A    between atoms: _451  and  _452
REMARK  185  A    between atoms: _457  and  _459
REMARK  186  A    between atoms: _459  and  _460
REMARK  187  A    between atoms: _459  and  _462
REMARK  188  A    between atoms: _465  and  _467
REMARK  189  A    between atoms: _467  and  _468
REMARK  190  A    between atoms: _467  and  _470
REMARK  191  A    between atoms: _470  and  _471
REMARK  192  A    between atoms: _476  and  _478
REMARK  193  A    between atoms: _478  and  _479
REMARK  194  A    between atoms: _478  and  _481
REMARK  195  A    between atoms: _481  and  _482
REMARK  196  A    between atoms: _485  and  _487
REMARK  197  A    between atoms: _487  and  _488
REMARK  198  A    between atoms: _487  and  _490
REMARK  199  A    between atoms: _490  and  _491
REMARK  200  A    between atoms: _494  and  _496
REMARK  201  A    between atoms: _496  and  _497
REMARK  202  A    between atoms: _499  and  _501
REMARK  203  A    between atoms: _501  and  _502
REMARK  204  A    between atoms: _501  and  _504
REMARK  205  A    between atoms: _504  and  _505
REMARK  206  A    between atoms: _505  and  _506
REMARK  207  A    between atoms: _506  and  _507
REMARK  208  A    between atoms: _516  and  _518
REMARK  209  A    between atoms: _518  and  _519
REMARK  210  A    between atoms: _518  and  _521
REMARK  211  A    between atoms: _521  and  _522
REMARK                            x       y       z     vdW  Elec       q    Type
REMARK                         _______ _______ _______ _____ _____    ______ ____
ROOT
ATOM      1  CA  ARG A   2      25.960  20.368  17.761  0.00  0.00    +0.149 C 
ENDROOT
BRANCH   1   4
ATOM      2  C   GLY A   1      26.990  22.564  17.735  0.00  0.00    +0.240 C 
ATOM      3  O   GLY A   1      27.906  22.191  18.470  0.00  0.00    -0.274 OA
ATOM      4  N   ARG A   2      26.053  21.742  17.277  0.00  0.00    -0.297 N 
ATOM      5  H   ARG A   2      25.376  22.082  16.564  0.00  0.00    +0.150 HD
BRANCH   2   6
ATOM      6  CA  GLY A   1      26.878  23.988  17.253  0.00  0.00    +0.169 C 
BRANCH   6   7
ATOM      7  N   GLY A   1      27.937  24.812  17.758  0.00  0.00    -0.236 NA
ATOM      8  H   GLY A   1      28.850  24.823  17.260  0.00  0.00    +0.142 HD
ENDBRANCH   6   7
ENDBRANCH   2   6
ENDBRANCH   1   4
BRANCH   1   9
ATOM      9  C   ARG A   2      27.226  19.549  17.502  0.00  0.00    +0.241 C 
ATOM     10  O   ARG A   2      27.526  18.639  18.276  0.00  0.00    -0.273 OA
ATOM     11  N   ASN A   3      27.942  19.840  16.419  0.00  0.00    -0.298 N 
ATOM     12  H   ASN A   3      27.631  20.607  15.789  0.00  0.00    +0.150 HD
BRANCH  11  13
ATOM     13  CA  ASN A   3      29.161  19.096  16.102  0.00  0.00    +0.146 C 
BRANCH  13  14
ATOM     14  C   ASN A   3      30.154  19.090  17.251  0.00  0.00    +0.227 C 
ATOM     15  O   ASN A   3      30.788  18.062  17.495  0.00  0.00    -0.286 OA
ENDBRANCH  13  14
BRANCH  13  16
ATOM     16  CB  ASN A   3      29.806  19.564  14.796  0.00  0.00    +0.112 C 
BRANCH  16  17
ATOM     17  CG  ASN A   3      30.550  20.880  14.925  0.00  0.00    +0.222 C 
ATOM     18  OD1 ASN A   3      29.993  21.882  15.369  0.00  0.00    -0.275 OA
ATOM     19  ND2 ASN A   3      31.829  20.878  14.518  0.00  0.00    -0.329 N 
ATOM     20 HD21 ASN A   3      32.393  21.750  14.571  0.00  0.00    +0.145 HD
ATOM     21 HD22 ASN A   3      32.256  20.004  14.149  0.00  0.00    +0.145 HD
ENDBRANCH  16  17
ENDBRANCH  13  16
ENDBRANCH  11  13
ENDBRANCH   1   9
BRANCH   1  22
ATOM     22  CB  ARG A   2      24.746  19.658  17.155  0.00  0.00    +0.033 C 
BRANCH  22  23
ATOM     23  CG  ARG A   2      23.431  20.249  17.578  0.00  0.00    +0.045 C 
BRANCH  23  24
ATOM     24  CD  ARG A   2      22.226  19.409  17.165  0.00  0.00    +0.174 C 
BRANCH  24  25
ATOM     25  NE  ARG A   2      22.096  19.314  15.709  0.00  0.00    -0.265 N 
ATOM     26  HE  ARG A   2      21.626  20.104  15.222  0.00  0.00    +0.259 HD
ATOM     27  CZ  ARG A   2      22.529  18.300  14.952  0.00  0.00    +0.342 C 
ATOM     28  NH2 ARG A   2      23.051  17.197  15.471  0.00  0.00    -0.292 N 
ATOM     29 HH21 ARG A   2      23.136  17.097  16.503  0.00  0.00    +0.255 HD
ATOM     30 HH22 ARG A   2      23.376  16.432  14.846  0.00  0.00    +0.255 HD
ATOM     31  NH1 ARG A   2      22.376  18.370  13.638  0.00  0.00    -0.292 N 
ATOM     32 HH11 ARG A   2      21.925  19.204  13.211  0.00  0.00    +0.255 HD
ATOM     33 HH12 ARG A   2      22.707  17.591  13.034  0.00  0.00    +0.255 HD
ENDBRANCH  24  25
ENDBRANCH  23  24
ENDBRANCH  22  23
ENDBRANCH   1  22
TORSDOF 12
REMARK  Name = ../refined-set-2016/4djr/4djr_pocket.pdb
REMARK  211 active torsions:
REMARK  status: ('A' for Active; 'I' for Inactive)
REMARK    1  A    between atoms: _1  and  _3
REMARK    2  A    between atoms: _3  and  _4
REMARK    3  A    between atoms: _3  and  _6
REMARK    4  A    between atoms: _6  and  _7
REMARK    5  A    between atoms: _7  and  _8
REMARK    6  A    between atoms: _8  and  _9
REMARK    7  A    between atoms: _18  and  _20
REMARK    8  A    between atoms: _20  and  _21
REMARK    9  A    between atoms: _20  and  _23
REMARK   10  A    between atoms: _23  and  _24
REMARK   11  A    between atoms: _27  and  _29
REMARK   12  A    between atoms: _29  and  _30
REMARK   13  A    between atoms: _29  and  _32
REMARK   14  A    between atoms: _32  and  _33
REMARK   15  A    between atoms: _36  and  _38
REMARK   16  A    between atoms: _38  and  _39
REMARK   17  A    between atoms: _38  and  _41
REMARK   18  A    between atoms: _41  and  _42
REMARK   19  A    between atoms: _45  and  _47
REMARK   20  A    between atoms: _47  and  _48
REMARK   21  A    between atoms: _47  and  _50
REMARK   22  A    between atoms: _50  and  _51
REMARK   23  A    between atoms: _54  and  _56
REMARK   24  A    between atoms: _56  and  _57
REMARK   25  A    between atoms: _59  and  _61
REMARK   26  A    between atoms: _61  and  _62
REMARK   27  A    between atoms: _65  and  _67
REMARK   28  A    between atoms: _67  and  _68
REMARK   29  A    between atoms: _67  and  _70
REMARK   30  A    between atoms: _70  and  _71
REMARK   31  A    between atoms: _74  and  _76
REMARK   32  A    between atoms: _76  and  _77
REMARK   33  A    between atoms: _76  and  _79
REMARK   34  A    between atoms: _79  and  _80
REMARK   35  A    between atoms: _83  and  _85
REMARK   36  A    between atoms: _85  and  _86
REMARK   37  A    between atoms: _85  and  _88
REMARK   38  A    between atoms: _88  and  _89
REMARK   39  A    between atoms: _92  and  _94
REMARK   40  A    between atoms: _94  and  _95
REMARK   41  A    between atoms: _94  and  _97
REMARK   42  A    between atoms: _100  and  _102
REMARK   43  A    between atoms: _102  and  _103
REMARK   44  A    between atoms: _102  and  _105
REMARK   45  A    between atoms: _105  and  _106
REMARK   46  A    between atoms: _109  and  _111
REMARK   47  A    between atoms: _111  and  _112
REMARK   48  A    between atoms: _114  and  _116
REMARK   49  A    between atoms: _116  and  _117
REMARK   50  A    between atoms: _119  and  _121
REMARK   51  A    between atoms: _121  and  _122
REMARK   52  A    between atoms: _121  and  _124
REMARK   53  A    between atoms: _124  and  _125
REMARK   54  A    between atoms: _128  and  _130
REMARK   55  A    between atoms: _130  and  _131
REMARK   56  A    between atoms: _133  and  _135
REMARK   57  A    between atoms: _135  and  _136
REMARK   58  A    between atoms: _138  and  _140
REMARK   59  A    between atoms: _140  and  _141
REMARK   60  A    between atoms: _140  and  _143
REMARK   61  A    between atoms: _143  and  _144
REMARK   62  A    between atoms: _150  and  _152
REMARK   63  A    between atoms: _152  and  _153
REMARK   64  A    between atoms: _152  and  _155
REMARK   65  A    between atoms: _155  and  _156
REMARK   66  A    between atoms: _159  and  _161
REMARK   67  A    between atoms: _161  and  _162
REMARK   68  A    between atoms: _161  and  _164
REMARK   69  A    between atoms: _164  and  _165
REMARK   70  A    between atoms: _168  and  _170
REMARK   71  A    between atoms: _170  and  _171
REMARK   72  A    between atoms: _170  and  _173
REMARK   73  A    between atoms: _173  and  _174
REMARK   74  A    between atoms: _178  and  _179
REMARK   75  A    between atoms: _184  and  _186
REMARK   76  A    between atoms: _186  and  _187
REMARK   77  A    between atoms: _186  and  _189
REMARK   78  A    between atoms: _192  and  _194
REMARK   79  A    between atoms: _194  and  _195
REMARK   80  A    between atoms: _194  and  _197
REMARK   81  A    between atoms: _197  and  _198
REMARK   82  A    between atoms: _203  and  _205
REMARK   83  A    between atoms: _205  and  _206
REMARK   84  A    between atoms: _205  and  _208
REMARK   85  A    between atoms: _208  and  _209
REMARK   86  A    between atoms: _212  and  _214
REMARK   87  A    between atoms: _214  and  _215
REMARK   88  A    between atoms: _217  and  _219
REMARK   89  A    between atoms: _219  and  _220
REMARK   90  A    between atoms: _219  and  _222
REMARK   91  A    between atoms: _222  and  _223
REMARK   92  A    between atoms: _223  and  _224
REMARK   93  A    between atoms: _224  and  _225
REMARK   94  A    between atoms: _234  and  _236
REMARK   95  A    between atoms: _236  and  _237
REMARK   96  A    between atoms: _236  and  _239
REMARK   97  A    between atoms: _239  and  _240
REMARK   98  A    between atoms: _245  and  _247
REMARK   99  A    between atoms: _247  and  _248
REMARK  100  A    between atoms: _247  and  _250
REMARK  101  A    between atoms: _250  and  _251
REMARK  102  A    between atoms: _251  and  _252
REMARK  103  A    between atoms: _252  and  _253
REMARK  104  A    between atoms: _262  and  _264
REMARK  105  A    between atoms: _264  and  _265
REMARK  106  A    between atoms: _264  and  _267
REMARK  107  A    between atoms: _267  and  _268
REMARK  108  A    between atoms: _271  and  _273
REMARK  109  A    between atoms: _273  and  _274
REMARK  110  A    between atoms: _273  and  _276
REMARK  111  A    between atoms: _276  and  _277
REMARK  112  A    between atoms: _280  and  _282
REMARK  113  A    between atoms: _282  and  _283
REMARK  114  A    between atoms: _282  and  _285
REMARK  115  A    between atoms: _285  and  _286
REMARK  116  A    between atoms: _289  and  _291
REMARK  117  A    between atoms: _291  and  _292
REMARK  118  A    between atoms: _291  and  _294
REMARK  119  A    between atoms: _294  and  _295
REMARK  120  A    between atoms: _298  and  _300
REMARK  121  A    between atoms: _300  and  _301
REMARK  122  A    between atoms: _303  and  _305
REMARK  123  A    between atoms: _305  and  _306
REMARK  124  A    between atoms: _309  and  _311
REMARK  125  A    between atoms: _311  and  _312
REMARK  126  A    between atoms: _311  and  _314
REMARK  127  A    between atoms: _314  and  _315
REMARK  128  A    between atoms: _318  and  _320
REMARK  129  A    between atoms: _320  and  _321
REMARK  130  A    between atoms: _320  and  _323
REMARK  131  A    between atoms: _323  and  _324
REMARK  132  A    between atoms: _327  and  _329
REMARK  133  A    between atoms: _329  and  _330
REMARK  134  A    between atoms: _329  and  _332
REMARK  135  A    between atoms: _332  and  _333
REMARK  136  A    between atoms: _336  and  _338
REMARK  137  A    between atoms: _338  and  _339
REMARK  138  A    between atoms: _338  and  _341
REMARK  139  A    between atoms: _344  and  _346
REMARK  140  A    between atoms: _346  and  _347
REMARK  141  A    between atoms: _346  and  _349
REMARK  142  A    between atoms: _349  and  _350
REMARK  143  A    between atoms: _350  and  _351
REMARK  144  A    between atoms: _351  and  _352
REMARK  145  A    between atoms: _352  and  _353
REMARK  146  A    between atoms: _357  and  _359
REMARK  147  A    between atoms: _359  and  _360
REMARK  148  A    between atoms: _359  and  _362
REMARK  149  A    between atoms: _362  and  _363
REMARK  150  A    between atoms: _363  and  _364
REMARK  151  A    between atoms: _366  and  _368
REMARK  152  A    between atoms: _368  and  _369
REMARK  153  A    between atoms: _368  and  _371
REMARK  154  A    between atoms: _371  and  _372
REMARK  155  A    between atoms: _375  and  _377
REMARK  156  A    between atoms: _377  and  _378
REMARK  157  A    between atoms: _380  and  _382
REMARK  158  A    between atoms: _382  and  _383
REMARK  159  A    between atoms: _385  and  _387
REMARK  160  A    between atoms: _387  and  _388
REMARK  161  A    between atoms: _387  and  _390
REMARK  162  A    between atoms: _390  and  _391
REMARK  163  A    between atoms: _394  and  _396
REMARK  164  A    between atoms: _396  and  _397
REMARK  165  A    between atoms: _399  and  _401
REMARK  166  A    between atoms: _401  and  _402
REMARK  167  A    between atoms: _404  and  _406
REMARK  168  A    between atoms: _406  and  _407
REMARK  169  A    between atoms: _406  and  _409
REMARK  170  A    between atoms: _409  and  _410
REMARK  171  A    between atoms: _416  and  _418
REMARK  172  A    between atoms: _418  and  _419
REMARK  173  A    between atoms: _418  and  _421
REMARK  174  A    between atoms: _421  and  _422
REMARK  175  A    between atoms: _425  and  _427
REMARK  176  A    between atoms: _427  and  _428
REMARK  177  A    between atoms: _427  and  _430
REMARK  178  A    between atoms: _430  and  _431
REMARK  179  A    between atoms: _435  and  _436
REMARK  180  A    between atoms: _441  and  _443
REMARK  181  A    between atoms: _443  and  _444
REMARK  182  A    between atoms: _443  and  _446
REMARK  183  A    between atoms: _446  and  _447
REMARK  184  A    between atoms: _451  and  _452
REMARK  185  A    between atoms: _457  and  _459
REMARK  186  A    between atoms: _459  and  _460
REMARK  187  A    between atoms: _459  and  _462
REMARK  188  A    between atoms: _465  and  _467
REMARK  189  A    between atoms: _467  and  _468
REMARK  190  A    between atoms: _467  and  _470
REMARK  191  A    between atoms: _470  and  _471
REMARK  192  A    between atoms: _476  and  _478
REMARK  193  A    between atoms: _478  and  _479
REMARK  194  A    between atoms: _478  and  _481
REMARK  195  A    between atoms: _481  and  _482
REMARK  196  A    between atoms: _485  and  _487
REMARK  197  A    between atoms: _487  and  _488
REMARK  198  A    between atoms: _487  and  _490
REMARK  199  A    between atoms: _490  and  _491
REMARK  200  A    between atoms: _494  and  _496
REMARK  201  A    between atoms: _496  and  _497
REMARK  202  A    between atoms: _499  and  _501
REMARK  203  A    between atoms: _501  and  _502
REMARK  204  A    between atoms: _501  and  _504
REMARK  205  A    between atoms: _504  and  _505
REMARK  206  A    between atoms: _505  and  _506
REMARK  207  A    between atoms: _506  and  _507
REMARK  208  A    between atoms: _516  and  _518
REMARK  209  A    between atoms: _518  and  _519
REMARK  210  A    between atoms: _518  and  _521
REMARK  211  A    between atoms: _521  and  _522
REMARK                            x       y       z     vdW  Elec       q    Type
REMARK                         _______ _______ _______ _____ _____    ______ ____
ROOT
ATOM      1  NE  ARG A   1      19.225  19.904  11.036  0.00  0.00    -0.265 N 
ATOM      2  HE  ARG A   1      20.096  20.315  11.429  0.00  0.00    +0.259 HD
ATOM      3  CZ  ARG A   1      19.117  19.853   9.708  0.00  0.00    +0.342 C 
ATOM      4  NH2 ARG A   1      18.028  19.367   9.120  0.00  0.00    -0.292 N 
ATOM      5 HH21 ARG A   1      17.238  19.016   9.698  0.00  0.00    +0.255 HD
ATOM      6 HH22 ARG A   1      17.967  19.337   8.082  0.00  0.00    +0.255 HD
ATOM      7  NH1 ARG A   1      20.109  20.306   8.961  0.00  0.00    -0.292 N 
ATOM      8 HH11 ARG A   1      20.962  20.697   9.410  0.00  0.00    +0.255 HD
ATOM      9 HH12 ARG A   1      20.037  20.272   7.924  0.00  0.00    +0.255 HD
ENDROOT
BRANCH   1  10
ATOM     10  CD  ARG A   1      18.218  19.428  11.986  0.00  0.00    +0.174 C 
BRANCH  10  11
ATOM     11  CG  ARG A   1      18.867  19.075  13.302  0.00  0.00    +0.045 C 
BRANCH  11  12
ATOM     12  CB  ARG A   1      17.878  18.487  14.286  0.00  0.00    +0.029 C 
BRANCH  12  13
ATOM     13  CA  ARG A   1      18.575  17.921  15.519  0.00  0.00    +0.133 C 
BRANCH  13  14
ATOM     14  N   ARG A   1      19.300  16.696  15.177  0.00  0.00    -0.239 NA
ATOM     15  H   ARG A   1      19.272  16.340  14.200  0.00  0.00    +0.142 HD
ENDBRANCH  13  14
BRANCH  13  16
ATOM     16  C   ARG A   1      17.546  17.620  16.610  0.00  0.00    +0.224 C 
ATOM     17  O   ARG A   1      16.808  16.626  16.534  0.00  0.00    -0.287 OA
ENDBRANCH  13  16
ENDBRANCH  12  13
ENDBRANCH  11  12
ENDBRANCH  10  11
ENDBRANCH   1  10
TORSDOF 6
REMARK  Name = ../refined-set-2016/4djr/4djr_pocket.pdb
REMARK  211 active torsions:
REMARK  status: ('A' for Active; 'I' for Inactive)
REMARK    1  A    between atoms: _1  and  _3
REMARK    2  A    between atoms: _3  and  _4
REMARK    3  A    between atoms: _3  and  _6
REMARK    4  A    between atoms: _6  and  _7
REMARK    5  A    between atoms: _7  and  _8
REMARK    6  A    between atoms: _8  and  _9
REMARK    7  A    between atoms: _18  and  _20
REMARK    8  A    between atoms: _20  and  _21
REMARK    9  A    between atoms: _20  and  _23
REMARK   10  A    between atoms: _23  and  _24
REMARK   11  A    between atoms: _27  and  _29
REMARK   12  A    between atoms: _29  and  _30
REMARK   13  A    between atoms: _29  and  _32
REMARK   14  A    between atoms: _32  and  _33
REMARK   15  A    between atoms: _36  and  _38
REMARK   16  A    between atoms: _38  and  _39
REMARK   17  A    between atoms: _38  and  _41
REMARK   18  A    between atoms: _41  and  _42
REMARK   19  A    between atoms: _45  and  _47
REMARK   20  A    between atoms: _47  and  _48
REMARK   21  A    between atoms: _47  and  _50
REMARK   22  A    between atoms: _50  and  _51
REMARK   23  A    between atoms: _54  and  _56
REMARK   24  A    between atoms: _56  and  _57
REMARK   25  A    between atoms: _59  and  _61
REMARK   26  A    between atoms: _61  and  _62
REMARK   27  A    between atoms: _65  and  _67
REMARK   28  A    between atoms: _67  and  _68
REMARK   29  A    between atoms: _67  and  _70
REMARK   30  A    between atoms: _70  and  _71
REMARK   31  A    between atoms: _74  and  _76
REMARK   32  A    between atoms: _76  and  _77
REMARK   33  A    between atoms: _76  and  _79
REMARK   34  A    between atoms: _79  and  _80
REMARK   35  A    between atoms: _83  and  _85
REMARK   36  A    between atoms: _85  and  _86
REMARK   37  A    between atoms: _85  and  _88
REMARK   38  A    between atoms: _88  and  _89
REMARK   39  A    between atoms: _92  and  _94
REMARK   40  A    between atoms: _94  and  _95
REMARK   41  A    between atoms: _94  and  _97
REMARK   42  A    between atoms: _100  and  _102
REMARK   43  A    between atoms: _102  and  _103
REMARK   44  A    between atoms: _102  and  _105
REMARK   45  A    between atoms: _105  and  _106
REMARK   46  A    between atoms: _109  and  _111
REMARK   47  A    between atoms: _111  and  _112
REMARK   48  A    between atoms: _114  and  _116
REMARK   49  A    between atoms: _116  and  _117
REMARK   50  A    between atoms: _119  and  _121
REMARK   51  A    between atoms: _121  and  _122
REMARK   52  A    between atoms: _121  and  _124
REMARK   53  A    between atoms: _124  and  _125
REMARK   54  A    between atoms: _128  and  _130
REMARK   55  A    between atoms: _130  and  _131
REMARK   56  A    between atoms: _133  and  _135
REMARK   57  A    between atoms: _135  and  _136
REMARK   58  A    between atoms: _138  and  _140
REMARK   59  A    between atoms: _140  and  _141
REMARK   60  A    between atoms: _140  and  _143
REMARK   61  A    between atoms: _143  and  _144
REMARK   62  A    between atoms: _150  and  _152
REMARK   63  A    between atoms: _152  and  _153
REMARK   64  A    between atoms: _152  and  _155
REMARK   65  A    between atoms: _155  and  _156
REMARK   66  A    between atoms: _159  and  _161
REMARK   67  A    between atoms: _161  and  _162
REMARK   68  A    between atoms: _161  and  _164
REMARK   69  A    between atoms: _164  and  _165
REMARK   70  A    between atoms: _168  and  _170
REMARK   71  A    between atoms: _170  and  _171
REMARK   72  A    between atoms: _170  and  _173
REMARK   73  A    between atoms: _173  and  _174
REMARK   74  A    between atoms: _178  and  _179
REMARK   75  A    between atoms: _184  and  _186
REMARK   76  A    between atoms: _186  and  _187
REMARK   77  A    between atoms: _186  and  _189
REMARK   78  A    between atoms: _192  and  _194
REMARK   79  A    between atoms: _194  and  _195
REMARK   80  A    between atoms: _194  and  _197
REMARK   81  A    between atoms: _197  and  _198
REMARK   82  A    between atoms: _203  and  _205
REMARK   83  A    between atoms: _205  and  _206
REMARK   84  A    between atoms: _205  and  _208
REMARK   85  A    between atoms: _208  and  _209
REMARK   86  A    between atoms: _212  and  _214
REMARK   87  A    between atoms: _214  and  _215
REMARK   88  A    between atoms: _217  and  _219
REMARK   89  A    between atoms: _219  and  _220
REMARK   90  A    between atoms: _219  and  _222
REMARK   91  A    between atoms: _222  and  _223
REMARK   92  A    between atoms: _223  and  _224
REMARK   93  A    between atoms: _224  and  _225
REMARK   94  A    between atoms: _234  and  _236
REMARK   95  A    between atoms: _236  and  _237
REMARK   96  A    between atoms: _236  and  _239
REMARK   97  A    between atoms: _239  and  _240
REMARK   98  A    between atoms: _245  and  _247
REMARK   99  A    between atoms: _247  and  _248
REMARK  100  A    between atoms: _247  and  _250
REMARK  101  A    between atoms: _250  and  _251
REMARK  102  A    between atoms: _251  and  _252
REMARK  103  A    between atoms: _252  and  _253
REMARK  104  A    between atoms: _262  and  _264
REMARK  105  A    between atoms: _264  and  _265
REMARK  106  A    between atoms: _264  and  _267
REMARK  107  A    between atoms: _267  and  _268
REMARK  108  A    between atoms: _271  and  _273
REMARK  109  A    between atoms: _273  and  _274
REMARK  110  A    between atoms: _273  and  _276
REMARK  111  A    between atoms: _276  and  _277
REMARK  112  A    between atoms: _280  and  _282
REMARK  113  A    between atoms: _282  and  _283
REMARK  114  A    between atoms: _282  and  _285
REMARK  115  A    between atoms: _285  and  _286
REMARK  116  A    between atoms: _289  and  _291
REMARK  117  A    between atoms: _291  and  _292
REMARK  118  A    between atoms: _291  and  _294
REMARK  119  A    between atoms: _294  and  _295
REMARK  120  A    between atoms: _298  and  _300
REMARK  121  A    between atoms: _300  and  _301
REMARK  122  A    between atoms: _303  and  _305
REMARK  123  A    between atoms: _305  and  _306
REMARK  124  A    between atoms: _309  and  _311
REMARK  125  A    between atoms: _311  and  _312
REMARK  126  A    between atoms: _311  and  _314
REMARK  127  A    between atoms: _314  and  _315
REMARK  128  A    between atoms: _318  and  _320
REMARK  129  A    between atoms: _320  and  _321
REMARK  130  A    between atoms: _320  and  _323
REMARK  131  A    between atoms: _323  and  _324
REMARK  132  A    between atoms: _327  and  _329
REMARK  133  A    between atoms: _329  and  _330
REMARK  134  A    between atoms: _329  and  _332
REMARK  135  A    between atoms: _332  and  _333
REMARK  136  A    between atoms: _336  and  _338
REMARK  137  A    between atoms: _338  and  _339
REMARK  138  A    between atoms: _338  and  _341
REMARK  139  A    between atoms: _344  and  _346
REMARK  140  A    between atoms: _346  and  _347
REMARK  141  A    between atoms: _346  and  _349
REMARK  142  A    between atoms: _349  and  _350
REMARK  143  A    between atoms: _350  and  _351
REMARK  144  A    between atoms: _351  and  _352
REMARK  145  A    between atoms: _352  and  _353
REMARK  146  A    between atoms: _357  and  _359
REMARK  147  A    between atoms: _359  and  _360
REMARK  148  A    between atoms: _359  and  _362
REMARK  149  A    between atoms: _362  and  _363
REMARK  150  A    between atoms: _363  and  _364
REMARK  151  A    between atoms: _366  and  _368
REMARK  152  A    between atoms: _368  and  _369
REMARK  153  A    between atoms: _368  and  _371
REMARK  154  A    between atoms: _371  and  _372
REMARK  155  A    between atoms: _375  and  _377
REMARK  156  A    between atoms: _377  and  _378
REMARK  157  A    between atoms: _380  and  _382
REMARK  158  A    between atoms: _382  and  _383
REMARK  159  A    between atoms: _385  and  _387
REMARK  160  A    between atoms: _387  and  _388
REMARK  161  A    between atoms: _387  and  _390
REMARK  162  A    between atoms: _390  and  _391
REMARK  163  A    between atoms: _394  and  _396
REMARK  164  A    between atoms: _396  and  _397
REMARK  165  A    between atoms: _399  and  _401
REMARK  166  A    between atoms: _401  and  _402
REMARK  167  A    between atoms: _404  and  _406
REMARK  168  A    between atoms: _406  and  _407
REMARK  169  A    between atoms: _406  and  _409
REMARK  170  A    between atoms: _409  and  _410
REMARK  171  A    between atoms: _416  and  _418
REMARK  172  A    between atoms: _418  and  _419
REMARK  173  A    between atoms: _418  and  _421
REMARK  174  A    between atoms: _421  and  _422
REMARK  175  A    between atoms: _425  and  _427
REMARK  176  A    between atoms: _427  and  _428
REMARK  177  A    between atoms: _427  and  _430
REMARK  178  A    between atoms: _430  and  _431
REMARK  179  A    between atoms: _435  and  _436
REMARK  180  A    between atoms: _441  and  _443
REMARK  181  A    between atoms: _443  and  _444
REMARK  182  A    between atoms: _443  and  _446
REMARK  183  A    between atoms: _446  and  _447
REMARK  184  A    between atoms: _451  and  _452
REMARK  185  A    between atoms: _457  and  _459
REMARK  186  A    between atoms: _459  and  _460
REMARK  187  A    between atoms: _459  and  _462
REMARK  188  A    between atoms: _465  and  _467
REMARK  189  A    between atoms: _467  and  _468
REMARK  190  A    between atoms: _467  and  _470
REMARK  191  A    between atoms: _470  and  _471
REMARK  192  A    between atoms: _476  and  _478
REMARK  193  A    between atoms: _478  and  _479
REMARK  194  A    between atoms: _478  and  _481
REMARK  195  A    between atoms: _481  and  _482
REMARK  196  A    between atoms: _485  and  _487
REMARK  197  A    between atoms: _487  and  _488
REMARK  198  A    between atoms: _487  and  _490
REMARK  199  A    between atoms: _490  and  _491
REMARK  200  A    between atoms: _494  and  _496
REMARK  201  A    between atoms: _496  and  _497
REMARK  202  A    between atoms: _499  and  _501
REMARK  203  A    between atoms: _501  and  _502
REMARK  204  A    between atoms: _501  and  _504
REMARK  205  A    between atoms: _504  and  _505
REMARK  206  A    between atoms: _505  and  _506
REMARK  207  A    between atoms: _506  and  _507
REMARK  208  A    between atoms: _516  and  _518
REMARK  209  A    between atoms: _518  and  _519
REMARK  210  A    between atoms: _518  and  _521
REMARK  211  A    between atoms: _521  and  _522
REMARK                            x       y       z     vdW  Elec       q    Type
REMARK                         _______ _______ _______ _____ _____    ______ ____
ROOT
ATOM      1  C   GLY A   5      19.569  30.903  20.078  0.00  0.00    +0.243 C 
ATOM      2  N   ALA A   6      18.286  30.588  20.276  0.00  0.00    -0.297 N 
ATOM      3  H   ALA A   6      18.067  29.682  20.737  0.00  0.00    +0.150 HD
ATOM      4  O   GLY A   5      19.939  31.976  19.607  0.00  0.00    -0.273 OA
ENDROOT
BRANCH   2   5
ATOM      5  CA  ALA A   6      17.170  31.451  19.879  0.00  0.00    +0.149 C 
ATOM      6  CB  ALA A   6      16.068  30.598  19.262  0.00  0.00    +0.031 C 
BRANCH   5   7
ATOM      7  C   ALA A   6      16.606  32.183  21.093  0.00  0.00    +0.241 C 
ATOM      8  O   ALA A   6      16.129  31.554  22.031  0.00  0.00    -0.273 OA
ATOM      9  N   ASP A   7      16.644  33.505  21.101  0.00  0.00    -0.297 N 
ATOM     10  H   ASP A   7      17.090  34.021  20.315  0.00  0.00    +0.150 HD
BRANCH   9  11
ATOM     11  CA  ASP A   7      16.056  34.236  22.220  0.00  0.00    +0.160 C 
BRANCH  11  12
ATOM     12  C   ASP A   7      14.548  34.055  22.244  0.00  0.00    +0.241 C 
ATOM     13  O   ASP A   7      13.938  33.916  23.316  0.00  0.00    -0.273 OA
ATOM     14  N   ASP A   8      13.959  34.099  21.052  0.00  0.00    -0.297 N 
ATOM     15  H   ASP A   8      14.562  34.164  20.207  0.00  0.00    +0.150 HD
BRANCH  14  16
ATOM     16  CA  ASP A   8      12.518  34.061  20.866  0.00  0.00    +0.160 C 
BRANCH  16  17
ATOM     17  C   ASP A   8      12.102  32.791  20.118  0.00  0.00    +0.241 C 
ATOM     18  N   THR A   9      10.818  32.491  20.188  0.00  0.00    -0.295 N 
ATOM     19  H   THR A   9      10.200  33.089  20.773  0.00  0.00    +0.150 HD
ATOM     20  O   ASP A   8      12.910  32.122  19.468  0.00  0.00    -0.273 OA
BRANCH  18  21
ATOM     21  CA  THR A   9      10.229  31.362  19.484  0.00  0.00    +0.176 C 
BRANCH  21  22
ATOM     22  C   THR A   9       9.697  31.857  18.126  0.00  0.00    +0.243 C 
ATOM     23  O   THR A   9       8.991  32.865  18.063  0.00  0.00    -0.273 OA
ATOM     24  N   VAL A  10      10.063  31.154  17.062  0.00  0.00    -0.298 N 
ATOM     25  H   VAL A  10      10.587  30.268  17.214  0.00  0.00    +0.150 HD
BRANCH  24  26
ATOM     26  CA  VAL A  10       9.769  31.558  15.687  0.00  0.00    +0.137 C 
BRANCH  26  27
ATOM     27  CB  VAL A  10      11.023  32.010  14.905  0.00  0.00    +0.026 C 
ATOM     28  CG2 VAL A  10      11.950  32.887  15.797  0.00  0.00    +0.002 C 
ATOM     29  CG1 VAL A  10      10.607  32.700  13.612  0.00  0.00    +0.002 C 
ENDBRANCH  26  27
BRANCH  26  30
ATOM     30  C   VAL A  10       9.123  30.389  14.964  0.00  0.00    +0.227 C 
ATOM     31  O   VAL A  10       9.714  29.305  14.843  0.00  0.00    -0.286 OA
ENDBRANCH  26  30
ENDBRANCH  24  26
ENDBRANCH  21  22
BRANCH  21  32
ATOM     32  CB  THR A   9       9.096  30.773  20.344  0.00  0.00    +0.137 C 
ATOM     33  CG2 THR A   9       8.275  29.723  19.605  0.00  0.00    +0.034 C 
BRANCH  32  34
ATOM     34  OG1 THR A   9       9.670  30.211  21.529  0.00  0.00    -0.382 OA
ATOM     35  HG1 THR A   9      10.144  30.919  22.033  0.00  0.00    +0.210 HD
ENDBRANCH  32  34
ENDBRANCH  21  32
ENDBRANCH  18  21
ENDBRANCH  16  17
BRANCH  16  36
ATOM     36  CB  ASP A   8      12.075  35.302  20.076  0.00  0.00    +0.143 C 
BRANCH  36  37
ATOM     37  CG  ASP A   8      12.512  36.605  20.716  0.00  0.00    +0.367 C 
ATOM     38  OD2 ASP A   8      12.629  36.682  21.960  0.00  0.00    -0.246 OA
ATOM     39  OD1 ASP A   8      12.740  37.575  19.961  0.00  0.00    -0.246 OA
ENDBRANCH  36  37
ENDBRANCH  16  36
ENDBRANCH  14  16
ENDBRANCH  11  12
BRANCH  11  40
ATOM     40  CB  ASP A   7      16.307  35.727  22.087  0.00  0.00    +0.143 C 
BRANCH  40  41
ATOM     41  CG  ASP A   7      17.766  36.113  22.065  0.00  0.00    +0.367 C 
ATOM     42  OD2 ASP A   7      18.635  35.418  22.634  0.00  0.00    -0.246 OA
ATOM     43  OD1 ASP A   7      18.022  37.212  21.505  0.00  0.00    -0.246 OA
ENDBRANCH  40  41
ENDBRANCH  11  40
ENDBRANCH   9  11
ENDBRANCH   5   7
ENDBRANCH   2   5
BRANCH   1  44
ATOM     44  CA  GLY A   5      20.605  29.863  20.487  0.00  0.00    +0.176 C 
BRANCH  44  47
ATOM     45  C   THR A   4      19.763  28.641  22.431  0.00  0.00    +0.243 C 
ATOM     46  O   THR A   4      20.033  29.583  23.181  0.00  0.00    -0.273 OA
ATOM     47  N   GLY A   5      20.028  28.676  21.125  0.00  0.00    -0.295 N 
ATOM     48  H   GLY A   5      19.820  27.839  20.543  0.00  0.00    +0.150 HD
BRANCH  45  49
ATOM     49  CA  THR A   4      19.132  27.367  23.001  0.00  0.00    +0.176 C 
BRANCH  49  51
ATOM     50  C   ASP A   3      17.459  26.917  21.289  0.00  0.00    +0.241 C 
ATOM     51  N   THR A   4      18.529  26.514  21.975  0.00  0.00    -0.295 N 
ATOM     52  H   THR A   4      18.941  25.580  21.778  0.00  0.00    +0.150 HD
ATOM     53  O   ASP A   3      16.945  28.029  21.437  0.00  0.00    -0.273 OA
BRANCH  50  54
ATOM     54  CA  ASP A   3      16.949  25.925  20.241  0.00  0.00    +0.160 C 
BRANCH  54  56
ATOM     55  C   LEU A   2      15.914  23.774  20.703  0.00  0.00    +0.241 C 
ATOM     56  N   ASP A   3      15.847  25.105  20.713  0.00  0.00    -0.297 N 
ATOM     57  H   ASP A   3      14.985  25.567  21.067  0.00  0.00    +0.150 HD
ATOM     58  O   LEU A   2      16.963  23.147  20.535  0.00  0.00    -0.273 OA
BRANCH  55  59
ATOM     59  CA  LEU A   2      14.602  23.026  20.871  0.00  0.00    +0.149 C 
BRANCH  59  61
ATOM     60  C   LEU A   1      13.744  23.209  18.597  0.00  0.00    +0.238 C 
ATOM     61  N   LEU A   2      14.267  22.463  19.566  0.00  0.00    -0.297 N 
ATOM     62  H   LEU A   2      14.442  21.453  19.390  0.00  0.00    +0.150 HD
ATOM     63  O   LEU A   1      13.358  24.363  18.791  0.00  0.00    -0.274 OA
BRANCH  60  64
ATOM     64  CA  LEU A   1      13.648  22.593  17.205  0.00  0.00    +0.145 C 
BRANCH  64  65
ATOM     65  N   LEU A   1      12.289  22.761  16.719  0.00  0.00    -0.238 NA
ATOM     66  H   LEU A   1      12.065  23.592  16.136  0.00  0.00    +0.142 HD
ENDBRANCH  64  65
BRANCH  64  67
ATOM     67  CB  LEU A   1      14.565  23.324  16.219  0.00  0.00    +0.026 C 
BRANCH  67  68
ATOM     68  CG  LEU A   1      16.025  23.055  15.944  0.00  0.00    +0.002 C 
ATOM     69  CD2 LEU A   1      16.320  21.616  15.642  0.00  0.00    +0.000 C 
ATOM     70  CD1 LEU A   1      16.347  23.974  14.742  0.00  0.00    +0.000 C 
ENDBRANCH  67  68
ENDBRANCH  64  67
ENDBRANCH  60  64
ENDBRANCH  59  61
BRANCH  59  71
ATOM     71  CB  LEU A   2      14.711  21.949  21.940  0.00  0.00    +0.029 C 
BRANCH  71  72
ATOM     72  CG  LEU A   2      13.445  21.147  22.238  0.00  0.00    +0.002 C 
ATOM     73  CD2 LEU A   2      13.760  20.066  23.299  0.00  0.00    +0.000 C 
ATOM     74  CD1 LEU A   2      12.223  22.005  22.659  0.00  0.00    +0.000 C 
ENDBRANCH  71  72
ENDBRANCH  59  71
ENDBRANCH  55  59
ENDBRANCH  54  56
BRANCH  54  75
ATOM     75  CB  ASP A   3      16.548  26.673  18.973  0.00  0.00    +0.143 C 
BRANCH  75  76
ATOM     76  CG  ASP A   3      17.729  27.349  18.309  0.00  0.00    +0.367 C 
ATOM     77  OD2 ASP A   3      18.843  27.314  18.888  0.00  0.00    -0.246 OA
ATOM     78  OD1 ASP A   3      17.552  27.878  17.204  0.00  0.00    -0.246 OA
ENDBRANCH  75  76
ENDBRANCH  54  75
ENDBRANCH  50  54
ENDBRANCH  49  51
BRANCH  49  79
ATOM     79  CB  THR A   4      20.187  26.595  23.806  0.00  0.00    +0.137 C 
ATOM     80  CG2 THR A   4      19.544  25.427  24.506  0.00  0.00    +0.034 C 
BRANCH  79  81
ATOM     81  OG1 THR A   4      21.218  26.128  22.925  0.00  0.00    -0.382 OA
ATOM     82  HG1 THR A   4      21.645  26.902  22.479  0.00  0.00    +0.210 HD
ENDBRANCH  79  81
ENDBRANCH  49  79
ENDBRANCH  45  49
ENDBRANCH  44  47
ENDBRANCH   1  44
TORSDOF 35
REMARK  Name = ../refined-set-2016/4djr/4djr_pocket.pdb
REMARK  211 active torsions:
REMARK  status: ('A' for Active; 'I' for Inactive)
REMARK    1  A    between atoms: _1  and  _3
REMARK    2  A    between atoms: _3  and  _4
REMARK    3  A    between atoms: _3  and  _6
REMARK    4  A    between atoms: _6  and  _7
REMARK    5  A    between atoms: _7  and  _8
REMARK    6  A    between atoms: _8  and  _9
REMARK    7  A    between atoms: _18  and  _20
REMARK    8  A    between atoms: _20  and  _21
REMARK    9  A    between atoms: _20  and  _23
REMARK   10  A    between atoms: _23  and  _24
REMARK   11  A    between atoms: _27  and  _29
REMARK   12  A    between atoms: _29  and  _30
REMARK   13  A    between atoms: _29  and  _32
REMARK   14  A    between atoms: _32  and  _33
REMARK   15  A    between atoms: _36  and  _38
REMARK   16  A    between atoms: _38  and  _39
REMARK   17  A    between atoms: _38  and  _41
REMARK   18  A    between atoms: _41  and  _42
REMARK   19  A    between atoms: _45  and  _47
REMARK   20  A    between atoms: _47  and  _48
REMARK   21  A    between atoms: _47  and  _50
REMARK   22  A    between atoms: _50  and  _51
REMARK   23  A    between atoms: _54  and  _56
REMARK   24  A    between atoms: _56  and  _57
REMARK   25  A    between atoms: _59  and  _61
REMARK   26  A    between atoms: _61  and  _62
REMARK   27  A    between atoms: _65  and  _67
REMARK   28  A    between atoms: _67  and  _68
REMARK   29  A    between atoms: _67  and  _70
REMARK   30  A    between atoms: _70  and  _71
REMARK   31  A    between atoms: _74  and  _76
REMARK   32  A    between atoms: _76  and  _77
REMARK   33  A    between atoms: _76  and  _79
REMARK   34  A    between atoms: _79  and  _80
REMARK   35  A    between atoms: _83  and  _85
REMARK   36  A    between atoms: _85  and  _86
REMARK   37  A    between atoms: _85  and  _88
REMARK   38  A    between atoms: _88  and  _89
REMARK   39  A    between atoms: _92  and  _94
REMARK   40  A    between atoms: _94  and  _95
REMARK   41  A    between atoms: _94  and  _97
REMARK   42  A    between atoms: _100  and  _102
REMARK   43  A    between atoms: _102  and  _103
REMARK   44  A    between atoms: _102  and  _105
REMARK   45  A    between atoms: _105  and  _106
REMARK   46  A    between atoms: _109  and  _111
REMARK   47  A    between atoms: _111  and  _112
REMARK   48  A    between atoms: _114  and  _116
REMARK   49  A    between atoms: _116  and  _117
REMARK   50  A    between atoms: _119  and  _121
REMARK   51  A    between atoms: _121  and  _122
REMARK   52  A    between atoms: _121  and  _124
REMARK   53  A    between atoms: _124  and  _125
REMARK   54  A    between atoms: _128  and  _130
REMARK   55  A    between atoms: _130  and  _131
REMARK   56  A    between atoms: _133  and  _135
REMARK   57  A    between atoms: _135  and  _136
REMARK   58  A    between atoms: _138  and  _140
REMARK   59  A    between atoms: _140  and  _141
REMARK   60  A    between atoms: _140  and  _143
REMARK   61  A    between atoms: _143  and  _144
REMARK   62  A    between atoms: _150  and  _152
REMARK   63  A    between atoms: _152  and  _153
REMARK   64  A    between atoms: _152  and  _155
REMARK   65  A    between atoms: _155  and  _156
REMARK   66  A    between atoms: _159  and  _161
REMARK   67  A    between atoms: _161  and  _162
REMARK   68  A    between atoms: _161  and  _164
REMARK   69  A    between atoms: _164  and  _165
REMARK   70  A    between atoms: _168  and  _170
REMARK   71  A    between atoms: _170  and  _171
REMARK   72  A    between atoms: _170  and  _173
REMARK   73  A    between atoms: _173  and  _174
REMARK   74  A    between atoms: _178  and  _179
REMARK   75  A    between atoms: _184  and  _186
REMARK   76  A    between atoms: _186  and  _187
REMARK   77  A    between atoms: _186  and  _189
REMARK   78  A    between atoms: _192  and  _194
REMARK   79  A    between atoms: _194  and  _195
REMARK   80  A    between atoms: _194  and  _197
REMARK   81  A    between atoms: _197  and  _198
REMARK   82  A    between atoms: _203  and  _205
REMARK   83  A    between atoms: _205  and  _206
REMARK   84  A    between atoms: _205  and  _208
REMARK   85  A    between atoms: _208  and  _209
REMARK   86  A    between atoms: _212  and  _214
REMARK   87  A    between atoms: _214  and  _215
REMARK   88  A    between atoms: _217  and  _219
REMARK   89  A    between atoms: _219  and  _220
REMARK   90  A    between atoms: _219  and  _222
REMARK   91  A    between atoms: _222  and  _223
REMARK   92  A    between atoms: _223  and  _224
REMARK   93  A    between atoms: _224  and  _225
REMARK   94  A    between atoms: _234  and  _236
REMARK   95  A    between atoms: _236  and  _237
REMARK   96  A    between atoms: _236  and  _239
REMARK   97  A    between atoms: _239  and  _240
REMARK   98  A    between atoms: _245  and  _247
REMARK   99  A    between atoms: _247  and  _248
REMARK  100  A    between atoms: _247  and  _250
REMARK  101  A    between atoms: _250  and  _251
REMARK  102  A    between atoms: _251  and  _252
REMARK  103  A    between atoms: _252  and  _253
REMARK  104  A    between atoms: _262  and  _264
REMARK  105  A    between atoms: _264  and  _265
REMARK  106  A    between atoms: _264  and  _267
REMARK  107  A    between atoms: _267  and  _268
REMARK  108  A    between atoms: _271  and  _273
REMARK  109  A    between atoms: _273  and  _274
REMARK  110  A    between atoms: _273  and  _276
REMARK  111  A    between atoms: _276  and  _277
REMARK  112  A    between atoms: _280  and  _282
REMARK  113  A    between atoms: _282  and  _283
REMARK  114  A    between atoms: _282  and  _285
REMARK  115  A    between atoms: _285  and  _286
REMARK  116  A    between atoms: _289  and  _291
REMARK  117  A    between atoms: _291  and  _292
REMARK  118  A    between atoms: _291  and  _294
REMARK  119  A    between atoms: _294  and  _295
REMARK  120  A    between atoms: _298  and  _300
REMARK  121  A    between atoms: _300  and  _301
REMARK  122  A    between atoms: _303  and  _305
REMARK  123  A    between atoms: _305  and  _306
REMARK  124  A    between atoms: _309  and  _311
REMARK  125  A    between atoms: _311  and  _312
REMARK  126  A    between atoms: _311  and  _314
REMARK  127  A    between atoms: _314  and  _315
REMARK  128  A    between atoms: _318  and  _320
REMARK  129  A    between atoms: _320  and  _321
REMARK  130  A    between atoms: _320  and  _323
REMARK  131  A    between atoms: _323  and  _324
REMARK  132  A    between atoms: _327  and  _329
REMARK  133  A    between atoms: _329  and  _330
REMARK  134  A    between atoms: _329  and  _332
REMARK  135  A    between atoms: _332  and  _333
REMARK  136  A    between atoms: _336  and  _338
REMARK  137  A    between atoms: _338  and  _339
REMARK  138  A    between atoms: _338  and  _341
REMARK  139  A    between atoms: _344  and  _346
REMARK  140  A    between atoms: _346  and  _347
REMARK  141  A    between atoms: _346  and  _349
REMARK  142  A    between atoms: _349  and  _350
REMARK  143  A    between atoms: _350  and  _351
REMARK  144  A    between atoms: _351  and  _352
REMARK  145  A    between atoms: _352  and  _353
REMARK  146  A    between atoms: _357  and  _359
REMARK  147  A    between atoms: _359  and  _360
REMARK  148  A    between atoms: _359  and  _362
REMARK  149  A    between atoms: _362  and  _363
REMARK  150  A    between atoms: _363  and  _364
REMARK  151  A    between atoms: _366  and  _368
REMARK  152  A    between atoms: _368  and  _369
REMARK  153  A    between atoms: _368  and  _371
REMARK  154  A    between atoms: _371  and  _372
REMARK  155  A    between atoms: _375  and  _377
REMARK  156  A    between atoms: _377  and  _378
REMARK  157  A    between atoms: _380  and  _382
REMARK  158  A    between atoms: _382  and  _383
REMARK  159  A    between atoms: _385  and  _387
REMARK  160  A    between atoms: _387  and  _388
REMARK  161  A    between atoms: _387  and  _390
REMARK  162  A    between atoms: _390  and  _391
REMARK  163  A    between atoms: _394  and  _396
REMARK  164  A    between atoms: _396  and  _397
REMARK  165  A    between atoms: _399  and  _401
REMARK  166  A    between atoms: _401  and  _402
REMARK  167  A    between atoms: _404  and  _406
REMARK  168  A    between atoms: _406  and  _407
REMARK  169  A    between atoms: _406  and  _409
REMARK  170  A    between atoms: _409  and  _410
REMARK  171  A    between atoms: _416  and  _418
REMARK  172  A    between atoms: _418  and  _419
REMARK  173  A    between atoms: _418  and  _421
REMARK  174  A    between atoms: _421  and  _422
REMARK  175  A    between atoms: _425  and  _427
REMARK  176  A    between atoms: _427  and  _428
REMARK  177  A    between atoms: _427  and  _430
REMARK  178  A    between atoms: _430  and  _431
REMARK  179  A    between atoms: _435  and  _436
REMARK  180  A    between atoms: _441  and  _443
REMARK  181  A    between atoms: _443  and  _444
REMARK  182  A    between atoms: _443  and  _446
REMARK  183  A    between atoms: _446  and  _447
REMARK  184  A    between atoms: _451  and  _452
REMARK  185  A    between atoms: _457  and  _459
REMARK  186  A    between atoms: _459  and  _460
REMARK  187  A    between atoms: _459  and  _462
REMARK  188  A    between atoms: _465  and  _467
REMARK  189  A    between atoms: _467  and  _468
REMARK  190  A    between atoms: _467  and  _470
REMARK  191  A    between atoms: _470  and  _471
REMARK  192  A    between atoms: _476  and  _478
REMARK  193  A    between atoms: _478  and  _479
REMARK  194  A    between atoms: _478  and  _481
REMARK  195  A    between atoms: _481  and  _482
REMARK  196  A    between atoms: _485  and  _487
REMARK  197  A    between atoms: _487  and  _488
REMARK  198  A    between atoms: _487  and  _490
REMARK  199  A    between atoms: _490  and  _491
REMARK  200  A    between atoms: _494  and  _496
REMARK  201  A    between atoms: _496  and  _497
REMARK  202  A    between atoms: _499  and  _501
REMARK  203  A    between atoms: _501  and  _502
REMARK  204  A    between atoms: _501  and  _504
REMARK  205  A    between atoms: _504  and  _505
REMARK  206  A    between atoms: _505  and  _506
REMARK  207  A    between atoms: _506  and  _507
REMARK  208  A    between atoms: _516  and  _518
REMARK  209  A    between atoms: _518  and  _519
REMARK  210  A    between atoms: _518  and  _521
REMARK  211  A    between atoms: _521  and  _522
REMARK                            x       y       z     vdW  Elec       q    Type
REMARK                         _______ _______ _______ _____ _____    ______ ____
ROOT
ATOM      1  C   GLY A   5      21.324  35.404  11.079  0.00  0.00    +0.243 C 
ATOM      2  N   ILE A   6      21.824  34.198  10.869  0.00  0.00    -0.297 N 
ATOM      3  H   ILE A   6      21.561  33.408  11.492  0.00  0.00    +0.150 HD
ATOM      4  O   GLY A   5      21.672  36.377  10.430  0.00  0.00    -0.273 OA
ENDROOT
BRANCH   2   5
ATOM      5  CA  ILE A   6      22.745  33.980   9.761  0.00  0.00    +0.149 C 
BRANCH   5   6
ATOM      6  C   ILE A   6      22.005  34.317   8.461  0.00  0.00    +0.241 C 
ATOM      7  O   ILE A   6      20.879  33.871   8.250  0.00  0.00    -0.273 OA
ATOM      8  N   GLY A   7      22.629  35.150   7.638  0.00  0.00    -0.295 N 
ATOM      9  H   GLY A   7      23.563  35.520   7.909  0.00  0.00    +0.150 HD
BRANCH   8  10
ATOM     10  CA  GLY A   7      22.052  35.561   6.375  0.00  0.00    +0.176 C 
BRANCH  10  11
ATOM     11  C   GLY A   7      21.368  36.907   6.406  0.00  0.00    +0.243 C 
ATOM     12  N   GLY A   8      20.965  37.383   7.587  0.00  0.00    -0.295 N 
ATOM     13  H   GLY A   8      21.130  36.805   8.436  0.00  0.00    +0.150 HD
ATOM     14  O   GLY A   7      21.210  37.501   5.350  0.00  0.00    -0.273 OA
BRANCH  12  15
ATOM     15  CA  GLY A   8      20.309  38.665   7.744  0.00  0.00    +0.176 C 
BRANCH  15  16
ATOM     16  C   GLY A   8      19.006  38.570   8.505  0.00  0.00    +0.243 C 
ATOM     17  O   GLY A   8      18.841  37.692   9.364  0.00  0.00    -0.273 OA
ATOM     18  N   PHE A   9      18.085  39.475   8.201  0.00  0.00    -0.297 N 
ATOM     19  H   PHE A   9      18.246  40.104   7.389  0.00  0.00    +0.150 HD
BRANCH  18  20
ATOM     20  CA  PHE A   9      16.853  39.615   8.971  0.00  0.00    +0.153 C 
BRANCH  20  21
ATOM     21  C   PHE A   9      15.652  39.104   8.196  0.00  0.00    +0.241 C 
ATOM     22  N   ILE A  10      14.664  38.627   8.946  0.00  0.00    -0.298 N 
ATOM     23  H   ILE A  10      14.836  38.428   9.952  0.00  0.00    +0.150 HD
ATOM     24  O   PHE A   9      15.626  39.110   6.959  0.00  0.00    -0.273 OA
BRANCH  22  25
ATOM     25  CA  ILE A  10      13.341  38.377   8.381  0.00  0.00    +0.137 C 
BRANCH  25  26
ATOM     26  C   ILE A  10      12.292  39.175   9.145  0.00  0.00    +0.227 C 
ATOM     27  O   ILE A  10      12.458  39.509  10.334  0.00  0.00    -0.286 OA
ENDBRANCH  25  26
BRANCH  25  28
ATOM     28  CB  ILE A  10      12.941  36.891   8.345  0.00  0.00    +0.026 C 
ATOM     29  CG2 ILE A  10      13.852  36.115   7.403  0.00  0.00    +0.002 C 
BRANCH  28  30
ATOM     30  CG1 ILE A  10      12.922  36.260   9.738  0.00  0.00    +0.002 C 
ATOM     31  CD1 ILE A  10      12.239  34.873   9.746  0.00  0.00    +0.000 C 
ENDBRANCH  28  30
ENDBRANCH  25  28
ENDBRANCH  22  25
ENDBRANCH  20  21
BRANCH  20  32
ATOM     32  CB  PHE A   9      16.630  41.083   9.374  0.00  0.00    +0.055 C 
BRANCH  32  33
ATOM     33  CG  PHE A   9      17.470  41.537  10.533  0.00  0.00    -0.020 A 
ATOM     34  CD2 PHE A   9      16.913  41.758  11.774  0.00  0.00    -0.004 A 
ATOM     35  CE2 PHE A   9      17.696  42.174  12.841  0.00  0.00    -0.000 A 
ATOM     36  CZ  PHE A   9      19.040  42.386  12.658  0.00  0.00    -0.000 A 
ATOM     37  CE1 PHE A   9      19.601  42.209  11.421  0.00  0.00    -0.000 A 
ATOM     38  CD1 PHE A   9      18.835  41.780  10.369  0.00  0.00    -0.004 A 
ENDBRANCH  32  33
ENDBRANCH  20  32
ENDBRANCH  18  20
ENDBRANCH  15  16
ENDBRANCH  12  15
ENDBRANCH  10  11
ENDBRANCH   8  10
ENDBRANCH   5   6
BRANCH   5  39
ATOM     39  CB  ILE A   6      23.301  32.541   9.801  0.00  0.00    +0.027 C 
ATOM     40  CG2 ILE A   6      23.934  32.164   8.470  0.00  0.00    +0.002 C 
BRANCH  39  41
ATOM     41  CG1 ILE A   6      24.372  32.442  10.888  0.00  0.00    +0.002 C 
ATOM     42  CD1 ILE A   6      24.816  31.030  11.196  0.00  0.00    +0.000 C 
ENDBRANCH  39  41
ENDBRANCH   5  39
ENDBRANCH   2   5
BRANCH   1  43
ATOM     43  CA  GLY A   5      20.310  35.506  12.192  0.00  0.00    +0.176 C 
BRANCH  43  46
ATOM     44  C   GLY A   4      18.908  37.296  13.039  0.00  0.00    +0.243 C 
ATOM     45  O   GLY A   4      18.944  36.863  14.195  0.00  0.00    -0.273 OA
ATOM     46  N   GLY A   5      19.455  36.670  12.009  0.00  0.00    -0.295 N 
ATOM     47  H   GLY A   5      19.270  37.018  11.047  0.00  0.00    +0.150 HD
BRANCH  44  48
ATOM     48  CA  GLY A   4      18.236  38.605  12.698  0.00  0.00    +0.176 C 
BRANCH  48  50
ATOM     49  C   ILE A   3      15.838  38.888  12.879  0.00  0.00    +0.241 C 
ATOM     50  N   GLY A   4      17.032  38.830  13.460  0.00  0.00    -0.295 N 
ATOM     51  H   GLY A   4      17.100  38.950  14.491  0.00  0.00    +0.150 HD
ATOM     52  O   ILE A   3      15.644  38.620  11.697  0.00  0.00    -0.273 OA
BRANCH  49  53
ATOM     53  CA  ILE A   3      14.698  39.335  13.782  0.00  0.00    +0.149 C 
BRANCH  53  56
ATOM     54  C   MET A   2      13.341  41.319  13.431  0.00  0.00    +0.241 C 
ATOM     55  O   MET A   2      13.700  41.796  14.511  0.00  0.00    -0.273 OA
ATOM     56  N   ILE A   3      13.738  40.123  13.003  0.00  0.00    -0.297 N 
ATOM     57  H   ILE A   3      13.364  39.745  12.109  0.00  0.00    +0.150 HD
BRANCH  54  58
ATOM     58  CA  MET A   2      12.404  42.091  12.519  0.00  0.00    +0.149 C 
BRANCH  58  60
ATOM     59  C   LYS A   1      10.030  42.270  13.164  0.00  0.00    +0.238 C 
ATOM     60  N   MET A   2      11.306  42.614  13.321  0.00  0.00    -0.297 N 
ATOM     61  H   MET A   2      11.535  43.302  14.066  0.00  0.00    +0.150 HD
ATOM     62  O   LYS A   1       9.606  41.606  12.213  0.00  0.00    -0.274 OA
BRANCH  59  63
ATOM     63  CA  LYS A   1       9.088  42.771  14.243  0.00  0.00    +0.145 C 
BRANCH  63  64
ATOM     64  N   LYS A   1       7.756  42.865  13.669  0.00  0.00    -0.238 NA
ATOM     65  H   LYS A   1       7.490  42.209  12.907  0.00  0.00    +0.142 HD
ENDBRANCH  63  64
BRANCH  63  66
ATOM     66  CB  LYS A   1       9.052  41.810  15.436  0.00  0.00    +0.026 C 
BRANCH  66  67
ATOM     67  CG  LYS A   1      10.302  41.755  16.295  0.00  0.00    -0.000 C 
BRANCH  67  68
ATOM     68  CD  LYS A   1      10.131  40.704  17.422  0.00  0.00    -0.024 C 
BRANCH  68  69
ATOM     69  CE  LYS A   1      11.340  40.665  18.344  0.00  0.00    -0.086 C 
BRANCH  69  70
ATOM     70  NZ  LYS A   1      11.387  41.814  19.254  0.00  0.00    +0.380 N 
ATOM     71  HZ1 LYS A   1      12.229  41.740  19.860  0.00  0.00    -0.089 HD
ATOM     72  HZ2 LYS A   1      10.532  41.821  19.846  0.00  0.00    -0.089 HD
ATOM     73  HZ3 LYS A   1      11.434  42.692  18.699  0.00  0.00    -0.089 HD
ENDBRANCH  69  70
ENDBRANCH  68  69
ENDBRANCH  67  68
ENDBRANCH  66  67
ENDBRANCH  63  66
ENDBRANCH  59  63
ENDBRANCH  58  60
BRANCH  58  74
ATOM     74  CB  MET A   2      13.187  43.236  11.873  0.00  0.00    +0.041 C 
BRANCH  74  75
ATOM     75  CG  MET A   2      12.417  43.960  10.789  0.00  0.00    +0.060 C 
BRANCH  75  76
ATOM     76  SD  MET A   2      12.475  43.007   9.258  0.00  0.00    -0.139 S 
ATOM     77  CE  MET A   2      14.057  43.517   8.593  0.00  0.00    +0.069 C 
ENDBRANCH  75  76
ENDBRANCH  74  75
ENDBRANCH  58  74
ENDBRANCH  54  58
ENDBRANCH  53  56
BRANCH  53  78
ATOM     78  CB  ILE A   3      14.046  38.136  14.465  0.00  0.00    +0.027 C 
ATOM     79  CG2 ILE A   3      13.081  38.631  15.528  0.00  0.00    +0.002 C 
BRANCH  78  80
ATOM     80  CG1 ILE A   3      13.390  37.198  13.447  0.00  0.00    +0.002 C 
ATOM     81  CD1 ILE A   3      12.921  35.863  14.050  0.00  0.00    +0.000 C 
ENDBRANCH  78  80
ENDBRANCH  53  78
ENDBRANCH  49  53
ENDBRANCH  48  50
ENDBRANCH  44  48
ENDBRANCH  43  46
ENDBRANCH   1  43
TORSDOF 36
REMARK  Name = ../refined-set-2016/4djr/4djr_pocket.pdb
REMARK  211 active torsions:
REMARK  status: ('A' for Active; 'I' for Inactive)
REMARK    1  A    between atoms: _1  and  _3
REMARK    2  A    between atoms: _3  and  _4
REMARK    3  A    between atoms: _3  and  _6
REMARK    4  A    between atoms: _6  and  _7
REMARK    5  A    between atoms: _7  and  _8
REMARK    6  A    between atoms: _8  and  _9
REMARK    7  A    between atoms: _18  and  _20
REMARK    8  A    between atoms: _20  and  _21
REMARK    9  A    between atoms: _20  and  _23
REMARK   10  A    between atoms: _23  and  _24
REMARK   11  A    between atoms: _27  and  _29
REMARK   12  A    between atoms: _29  and  _30
REMARK   13  A    between atoms: _29  and  _32
REMARK   14  A    between atoms: _32  and  _33
REMARK   15  A    between atoms: _36  and  _38
REMARK   16  A    between atoms: _38  and  _39
REMARK   17  A    between atoms: _38  and  _41
REMARK   18  A    between atoms: _41  and  _42
REMARK   19  A    between atoms: _45  and  _47
REMARK   20  A    between atoms: _47  and  _48
REMARK   21  A    between atoms: _47  and  _50
REMARK   22  A    between atoms: _50  and  _51
REMARK   23  A    between atoms: _54  and  _56
REMARK   24  A    between atoms: _56  and  _57
REMARK   25  A    between atoms: _59  and  _61
REMARK   26  A    between atoms: _61  and  _62
REMARK   27  A    between atoms: _65  and  _67
REMARK   28  A    between atoms: _67  and  _68
REMARK   29  A    between atoms: _67  and  _70
REMARK   30  A    between atoms: _70  and  _71
REMARK   31  A    between atoms: _74  and  _76
REMARK   32  A    between atoms: _76  and  _77
REMARK   33  A    between atoms: _76  and  _79
REMARK   34  A    between atoms: _79  and  _80
REMARK   35  A    between atoms: _83  and  _85
REMARK   36  A    between atoms: _85  and  _86
REMARK   37  A    between atoms: _85  and  _88
REMARK   38  A    between atoms: _88  and  _89
REMARK   39  A    between atoms: _92  and  _94
REMARK   40  A    between atoms: _94  and  _95
REMARK   41  A    between atoms: _94  and  _97
REMARK   42  A    between atoms: _100  and  _102
REMARK   43  A    between atoms: _102  and  _103
REMARK   44  A    between atoms: _102  and  _105
REMARK   45  A    between atoms: _105  and  _106
REMARK   46  A    between atoms: _109  and  _111
REMARK   47  A    between atoms: _111  and  _112
REMARK   48  A    between atoms: _114  and  _116
REMARK   49  A    between atoms: _116  and  _117
REMARK   50  A    between atoms: _119  and  _121
REMARK   51  A    between atoms: _121  and  _122
REMARK   52  A    between atoms: _121  and  _124
REMARK   53  A    between atoms: _124  and  _125
REMARK   54  A    between atoms: _128  and  _130
REMARK   55  A    between atoms: _130  and  _131
REMARK   56  A    between atoms: _133  and  _135
REMARK   57  A    between atoms: _135  and  _136
REMARK   58  A    between atoms: _138  and  _140
REMARK   59  A    between atoms: _140  and  _141
REMARK   60  A    between atoms: _140  and  _143
REMARK   61  A    between atoms: _143  and  _144
REMARK   62  A    between atoms: _150  and  _152
REMARK   63  A    between atoms: _152  and  _153
REMARK   64  A    between atoms: _152  and  _155
REMARK   65  A    between atoms: _155  and  _156
REMARK   66  A    between atoms: _159  and  _161
REMARK   67  A    between atoms: _161  and  _162
REMARK   68  A    between atoms: _161  and  _164
REMARK   69  A    between atoms: _164  and  _165
REMARK   70  A    between atoms: _168  and  _170
REMARK   71  A    between atoms: _170  and  _171
REMARK   72  A    between atoms: _170  and  _173
REMARK   73  A    between atoms: _173  and  _174
REMARK   74  A    between atoms: _178  and  _179
REMARK   75  A    between atoms: _184  and  _186
REMARK   76  A    between atoms: _186  and  _187
REMARK   77  A    between atoms: _186  and  _189
REMARK   78  A    between atoms: _192  and  _194
REMARK   79  A    between atoms: _194  and  _195
REMARK   80  A    between atoms: _194  and  _197
REMARK   81  A    between atoms: _197  and  _198
REMARK   82  A    between atoms: _203  and  _205
REMARK   83  A    between atoms: _205  and  _206
REMARK   84  A    between atoms: _205  and  _208
REMARK   85  A    between atoms: _208  and  _209
REMARK   86  A    between atoms: _212  and  _214
REMARK   87  A    between atoms: _214  and  _215
REMARK   88  A    between atoms: _217  and  _219
REMARK   89  A    between atoms: _219  and  _220
REMARK   90  A    between atoms: _219  and  _222
REMARK   91  A    between atoms: _222  and  _223
REMARK   92  A    between atoms: _223  and  _224
REMARK   93  A    between atoms: _224  and  _225
REMARK   94  A    between atoms: _234  and  _236
REMARK   95  A    between atoms: _236  and  _237
REMARK   96  A    between atoms: _236  and  _239
REMARK   97  A    between atoms: _239  and  _240
REMARK   98  A    between atoms: _245  and  _247
REMARK   99  A    between atoms: _247  and  _248
REMARK  100  A    between atoms: _247  and  _250
REMARK  101  A    between atoms: _250  and  _251
REMARK  102  A    between atoms: _251  and  _252
REMARK  103  A    between atoms: _252  and  _253
REMARK  104  A    between atoms: _262  and  _264
REMARK  105  A    between atoms: _264  and  _265
REMARK  106  A    between atoms: _264  and  _267
REMARK  107  A    between atoms: _267  and  _268
REMARK  108  A    between atoms: _271  and  _273
REMARK  109  A    between atoms: _273  and  _274
REMARK  110  A    between atoms: _273  and  _276
REMARK  111  A    between atoms: _276  and  _277
REMARK  112  A    between atoms: _280  and  _282
REMARK  113  A    between atoms: _282  and  _283
REMARK  114  A    between atoms: _282  and  _285
REMARK  115  A    between atoms: _285  and  _286
REMARK  116  A    between atoms: _289  and  _291
REMARK  117  A    between atoms: _291  and  _292
REMARK  118  A    between atoms: _291  and  _294
REMARK  119  A    between atoms: _294  and  _295
REMARK  120  A    between atoms: _298  and  _300
REMARK  121  A    between atoms: _300  and  _301
REMARK  122  A    between atoms: _303  and  _305
REMARK  123  A    between atoms: _305  and  _306
REMARK  124  A    between atoms: _309  and  _311
REMARK  125  A    between atoms: _311  and  _312
REMARK  126  A    between atoms: _311  and  _314
REMARK  127  A    between atoms: _314  and  _315
REMARK  128  A    between atoms: _318  and  _320
REMARK  129  A    between atoms: _320  and  _321
REMARK  130  A    between atoms: _320  and  _323
REMARK  131  A    between atoms: _323  and  _324
REMARK  132  A    between atoms: _327  and  _329
REMARK  133  A    between atoms: _329  and  _330
REMARK  134  A    between atoms: _329  and  _332
REMARK  135  A    between atoms: _332  and  _333
REMARK  136  A    between atoms: _336  and  _338
REMARK  137  A    between atoms: _338  and  _339
REMARK  138  A    between atoms: _338  and  _341
REMARK  139  A    between atoms: _344  and  _346
REMARK  140  A    between atoms: _346  and  _347
REMARK  141  A    between atoms: _346  and  _349
REMARK  142  A    between atoms: _349  and  _350
REMARK  143  A    between atoms: _350  and  _351
REMARK  144  A    between atoms: _351  and  _352
REMARK  145  A    between atoms: _352  and  _353
REMARK  146  A    between atoms: _357  and  _359
REMARK  147  A    between atoms: _359  and  _360
REMARK  148  A    between atoms: _359  and  _362
REMARK  149  A    between atoms: _362  and  _363
REMARK  150  A    between atoms: _363  and  _364
REMARK  151  A    between atoms: _366  and  _368
REMARK  152  A    between atoms: _368  and  _369
REMARK  153  A    between atoms: _368  and  _371
REMARK  154  A    between atoms: _371  and  _372
REMARK  155  A    between atoms: _375  and  _377
REMARK  156  A    between atoms: _377  and  _378
REMARK  157  A    between atoms: _380  and  _382
REMARK  158  A    between atoms: _382  and  _383
REMARK  159  A    between atoms: _385  and  _387
REMARK  160  A    between atoms: _387  and  _388
REMARK  161  A    between atoms: _387  and  _390
REMARK  162  A    between atoms: _390  and  _391
REMARK  163  A    between atoms: _394  and  _396
REMARK  164  A    between atoms: _396  and  _397
REMARK  165  A    between atoms: _399  and  _401
REMARK  166  A    between atoms: _401  and  _402
REMARK  167  A    between atoms: _404  and  _406
REMARK  168  A    between atoms: _406  and  _407
REMARK  169  A    between atoms: _406  and  _409
REMARK  170  A    between atoms: _409  and  _410
REMARK  171  A    between atoms: _416  and  _418
REMARK  172  A    between atoms: _418  and  _419
REMARK  173  A    between atoms: _418  and  _421
REMARK  174  A    between atoms: _421  and  _422
REMARK  175  A    between atoms: _425  and  _427
REMARK  176  A    between atoms: _427  and  _428
REMARK  177  A    between atoms: _427  and  _430
REMARK  178  A    between atoms: _430  and  _431
REMARK  179  A    between atoms: _435  and  _436
REMARK  180  A    between atoms: _441  and  _443
REMARK  181  A    between atoms: _443  and  _444
REMARK  182  A    between atoms: _443  and  _446
REMARK  183  A    between atoms: _446  and  _447
REMARK  184  A    between atoms: _451  and  _452
REMARK  185  A    between atoms: _457  and  _459
REMARK  186  A    between atoms: _459  and  _460
REMARK  187  A    between atoms: _459  and  _462
REMARK  188  A    between atoms: _465  and  _467
REMARK  189  A    between atoms: _467  and  _468
REMARK  190  A    between atoms: _467  and  _470
REMARK  191  A    between atoms: _470  and  _471
REMARK  192  A    between atoms: _476  and  _478
REMARK  193  A    between atoms: _478  and  _479
REMARK  194  A    between atoms: _478  and  _481
REMARK  195  A    between atoms: _481  and  _482
REMARK  196  A    between atoms: _485  and  _487
REMARK  197  A    between atoms: _487  and  _488
REMARK  198  A    between atoms: _487  and  _490
REMARK  199  A    between atoms: _490  and  _491
REMARK  200  A    between atoms: _494  and  _496
REMARK  201  A    between atoms: _496  and  _497
REMARK  202  A    between atoms: _499  and  _501
REMARK  203  A    between atoms: _501  and  _502
REMARK  204  A    between atoms: _501  and  _504
REMARK  205  A    between atoms: _504  and  _505
REMARK  206  A    between atoms: _505  and  _506
REMARK  207  A    between atoms: _506  and  _507
REMARK  208  A    between atoms: _516  and  _518
REMARK  209  A    between atoms: _518  and  _519
REMARK  210  A    between atoms: _518  and  _521
REMARK  211  A    between atoms: _521  and  _522
REMARK                            x       y       z     vdW  Elec       q    Type
REMARK                         _______ _______ _______ _____ _____    ______ ____
ROOT
ATOM      1  CA  LEU A   1       6.858  35.109  16.210  0.00  0.00    +0.133 C 
ENDROOT
BRANCH   1   2
ATOM      2  N   LEU A   1       6.625  34.305  17.396  0.00  0.00    -0.239 NA
ATOM      3  H   LEU A   1       7.324  33.580  17.657  0.00  0.00    +0.142 HD
ENDBRANCH   1   2
BRANCH   1   4
ATOM      4  C   LEU A   1       6.559  34.240  14.994  0.00  0.00    +0.224 C 
ATOM      5  O   LEU A   1       7.052  33.110  14.909  0.00  0.00    -0.287 OA
ENDBRANCH   1   4
BRANCH   1   6
ATOM      6  CB  LEU A   1       8.312  35.575  16.157  0.00  0.00    +0.025 C 
BRANCH   6   7
ATOM      7  CG  LEU A   1       8.854  36.255  17.405  0.00  0.00    +0.002 C 
ATOM      8  CD2 LEU A   1       7.983  37.447  17.824  0.00  0.00    +0.000 C 
ATOM      9  CD1 LEU A   1      10.286  36.687  17.161  0.00  0.00    +0.000 C 
ENDBRANCH   6   7
ENDBRANCH   1   6
TORSDOF 4
REMARK  Name = ../refined-set-2016/4djr/4djr_pocket.pdb
REMARK  211 active torsions:
REMARK  status: ('A' for Active; 'I' for Inactive)
REMARK    1  A    between atoms: _1  and  _3
REMARK    2  A    between atoms: _3  and  _4
REMARK    3  A    between atoms: _3  and  _6
REMARK    4  A    between atoms: _6  and  _7
REMARK    5  A    between atoms: _7  and  _8
REMARK    6  A    between atoms: _8  and  _9
REMARK    7  A    between atoms: _18  and  _20
REMARK    8  A    between atoms: _20  and  _21
REMARK    9  A    between atoms: _20  and  _23
REMARK   10  A    between atoms: _23  and  _24
REMARK   11  A    between atoms: _27  and  _29
REMARK   12  A    between atoms: _29  and  _30
REMARK   13  A    between atoms: _29  and  _32
REMARK   14  A    between atoms: _32  and  _33
REMARK   15  A    between atoms: _36  and  _38
REMARK   16  A    between atoms: _38  and  _39
REMARK   17  A    between atoms: _38  and  _41
REMARK   18  A    between atoms: _41  and  _42
REMARK   19  A    between atoms: _45  and  _47
REMARK   20  A    between atoms: _47  and  _48
REMARK   21  A    between atoms: _47  and  _50
REMARK   22  A    between atoms: _50  and  _51
REMARK   23  A    between atoms: _54  and  _56
REMARK   24  A    between atoms: _56  and  _57
REMARK   25  A    between atoms: _59  and  _61
REMARK   26  A    between atoms: _61  and  _62
REMARK   27  A    between atoms: _65  and  _67
REMARK   28  A    between atoms: _67  and  _68
REMARK   29  A    between atoms: _67  and  _70
REMARK   30  A    between atoms: _70  and  _71
REMARK   31  A    between atoms: _74  and  _76
REMARK   32  A    between atoms: _76  and  _77
REMARK   33  A    between atoms: _76  and  _79
REMARK   34  A    between atoms: _79  and  _80
REMARK   35  A    between atoms: _83  and  _85
REMARK   36  A    between atoms: _85  and  _86
REMARK   37  A    between atoms: _85  and  _88
REMARK   38  A    between atoms: _88  and  _89
REMARK   39  A    between atoms: _92  and  _94
REMARK   40  A    between atoms: _94  and  _95
REMARK   41  A    between atoms: _94  and  _97
REMARK   42  A    between atoms: _100  and  _102
REMARK   43  A    between atoms: _102  and  _103
REMARK   44  A    between atoms: _102  and  _105
REMARK   45  A    between atoms: _105  and  _106
REMARK   46  A    between atoms: _109  and  _111
REMARK   47  A    between atoms: _111  and  _112
REMARK   48  A    between atoms: _114  and  _116
REMARK   49  A    between atoms: _116  and  _117
REMARK   50  A    between atoms: _119  and  _121
REMARK   51  A    between atoms: _121  and  _122
REMARK   52  A    between atoms: _121  and  _124
REMARK   53  A    between atoms: _124  and  _125
REMARK   54  A    between atoms: _128  and  _130
REMARK   55  A    between atoms: _130  and  _131
REMARK   56  A    between atoms: _133  and  _135
REMARK   57  A    between atoms: _135  and  _136
REMARK   58  A    between atoms: _138  and  _140
REMARK   59  A    between atoms: _140  and  _141
REMARK   60  A    between atoms: _140  and  _143
REMARK   61  A    between atoms: _143  and  _144
REMARK   62  A    between atoms: _150  and  _152
REMARK   63  A    between atoms: _152  and  _153
REMARK   64  A    between atoms: _152  and  _155
REMARK   65  A    between atoms: _155  and  _156
REMARK   66  A    between atoms: _159  and  _161
REMARK   67  A    between atoms: _161  and  _162
REMARK   68  A    between atoms: _161  and  _164
REMARK   69  A    between atoms: _164  and  _165
REMARK   70  A    between atoms: _168  and  _170
REMARK   71  A    between atoms: _170  and  _171
REMARK   72  A    between atoms: _170  and  _173
REMARK   73  A    between atoms: _173  and  _174
REMARK   74  A    between atoms: _178  and  _179
REMARK   75  A    between atoms: _184  and  _186
REMARK   76  A    between atoms: _186  and  _187
REMARK   77  A    between atoms: _186  and  _189
REMARK   78  A    between atoms: _192  and  _194
REMARK   79  A    between atoms: _194  and  _195
REMARK   80  A    between atoms: _194  and  _197
REMARK   81  A    between atoms: _197  and  _198
REMARK   82  A    between atoms: _203  and  _205
REMARK   83  A    between atoms: _205  and  _206
REMARK   84  A    between atoms: _205  and  _208
REMARK   85  A    between atoms: _208  and  _209
REMARK   86  A    between atoms: _212  and  _214
REMARK   87  A    between atoms: _214  and  _215
REMARK   88  A    between atoms: _217  and  _219
REMARK   89  A    between atoms: _219  and  _220
REMARK   90  A    between atoms: _219  and  _222
REMARK   91  A    between atoms: _222  and  _223
REMARK   92  A    between atoms: _223  and  _224
REMARK   93  A    between atoms: _224  and  _225
REMARK   94  A    between atoms: _234  and  _236
REMARK   95  A    between atoms: _236  and  _237
REMARK   96  A    between atoms: _236  and  _239
REMARK   97  A    between atoms: _239  and  _240
REMARK   98  A    between atoms: _245  and  _247
REMARK   99  A    between atoms: _247  and  _248
REMARK  100  A    between atoms: _247  and  _250
REMARK  101  A    between atoms: _250  and  _251
REMARK  102  A    between atoms: _251  and  _252
REMARK  103  A    between atoms: _252  and  _253
REMARK  104  A    between atoms: _262  and  _264
REMARK  105  A    between atoms: _264  and  _265
REMARK  106  A    between atoms: _264  and  _267
REMARK  107  A    between atoms: _267  and  _268
REMARK  108  A    between atoms: _271  and  _273
REMARK  109  A    between atoms: _273  and  _274
REMARK  110  A    between atoms: _273  and  _276
REMARK  111  A    between atoms: _276  and  _277
REMARK  112  A    between atoms: _280  and  _282
REMARK  113  A    between atoms: _282  and  _283
REMARK  114  A    between atoms: _282  and  _285
REMARK  115  A    between atoms: _285  and  _286
REMARK  116  A    between atoms: _289  and  _291
REMARK  117  A    between atoms: _291  and  _292
REMARK  118  A    between atoms: _291  and  _294
REMARK  119  A    between atoms: _294  and  _295
REMARK  120  A    between atoms: _298  and  _300
REMARK  121  A    between atoms: _300  and  _301
REMARK  122  A    between atoms: _303  and  _305
REMARK  123  A    between atoms: _305  and  _306
REMARK  124  A    between atoms: _309  and  _311
REMARK  125  A    between atoms: _311  and  _312
REMARK  126  A    between atoms: _311  and  _314
REMARK  127  A    between atoms: _314  and  _315
REMARK  128  A    between atoms: _318  and  _320
REMARK  129  A    between atoms: _320  and  _321
REMARK  130  A    between atoms: _320  and  _323
REMARK  131  A    between atoms: _323  and  _324
REMARK  132  A    between atoms: _327  and  _329
REMARK  133  A    between atoms: _329  and  _330
REMARK  134  A    between atoms: _329  and  _332
REMARK  135  A    between atoms: _332  and  _333
REMARK  136  A    between atoms: _336  and  _338
REMARK  137  A    between atoms: _338  and  _339
REMARK  138  A    between atoms: _338  and  _341
REMARK  139  A    between atoms: _344  and  _346
REMARK  140  A    between atoms: _346  and  _347
REMARK  141  A    between atoms: _346  and  _349
REMARK  142  A    between atoms: _349  and  _350
REMARK  143  A    between atoms: _350  and  _351
REMARK  144  A    between atoms: _351  and  _352
REMARK  145  A    between atoms: _352  and  _353
REMARK  146  A    between atoms: _357  and  _359
REMARK  147  A    between atoms: _359  and  _360
REMARK  148  A    between atoms: _359  and  _362
REMARK  149  A    between atoms: _362  and  _363
REMARK  150  A    between atoms: _363  and  _364
REMARK  151  A    between atoms: _366  and  _368
REMARK  152  A    between atoms: _368  and  _369
REMARK  153  A    between atoms: _368  and  _371
REMARK  154  A    between atoms: _371  and  _372
REMARK  155  A    between atoms: _375  and  _377
REMARK  156  A    between atoms: _377  and  _378
REMARK  157  A    between atoms: _380  and  _382
REMARK  158  A    between atoms: _382  and  _383
REMARK  159  A    between atoms: _385  and  _387
REMARK  160  A    between atoms: _387  and  _388
REMARK  161  A    between atoms: _387  and  _390
REMARK  162  A    between atoms: _390  and  _391
REMARK  163  A    between atoms: _394  and  _396
REMARK  164  A    between atoms: _396  and  _397
REMARK  165  A    between atoms: _399  and  _401
REMARK  166  A    between atoms: _401  and  _402
REMARK  167  A    between atoms: _404  and  _406
REMARK  168  A    between atoms: _406  and  _407
REMARK  169  A    between atoms: _406  and  _409
REMARK  170  A    between atoms: _409  and  _410
REMARK  171  A    between atoms: _416  and  _418
REMARK  172  A    between atoms: _418  and  _419
REMARK  173  A    between atoms: _418  and  _421
REMARK  174  A    between atoms: _421  and  _422
REMARK  175  A    between atoms: _425  and  _427
REMARK  176  A    between atoms: _427  and  _428
REMARK  177  A    between atoms: _427  and  _430
REMARK  178  A    between atoms: _430  and  _431
REMARK  179  A    between atoms: _435  and  _436
REMARK  180  A    between atoms: _441  and  _443
REMARK  181  A    between atoms: _443  and  _444
REMARK  182  A    between atoms: _443  and  _446
REMARK  183  A    between atoms: _446  and  _447
REMARK  184  A    between atoms: _451  and  _452
REMARK  185  A    between atoms: _457  and  _459
REMARK  186  A    between atoms: _459  and  _460
REMARK  187  A    between atoms: _459  and  _462
REMARK  188  A    between atoms: _465  and  _467
REMARK  189  A    between atoms: _467  and  _468
REMARK  190  A    between atoms: _467  and  _470
REMARK  191  A    between atoms: _470  and  _471
REMARK  192  A    between atoms: _476  and  _478
REMARK  193  A    between atoms: _478  and  _479
REMARK  194  A    between atoms: _478  and  _481
REMARK  195  A    between atoms: _481  and  _482
REMARK  196  A    between atoms: _485  and  _487
REMARK  197  A    between atoms: _487  and  _488
REMARK  198  A    between atoms: _487  and  _490
REMARK  199  A    between atoms: _490  and  _491
REMARK  200  A    between atoms: _494  and  _496
REMARK  201  A    between atoms: _496  and  _497
REMARK  202  A    between atoms: _499  and  _501
REMARK  203  A    between atoms: _501  and  _502
REMARK  204  A    between atoms: _501  and  _504
REMARK  205  A    between atoms: _504  and  _505
REMARK  206  A    between atoms: _505  and  _506
REMARK  207  A    between atoms: _506  and  _507
REMARK  208  A    between atoms: _516  and  _518
REMARK  209  A    between atoms: _518  and  _519
REMARK  210  A    between atoms: _518  and  _521
REMARK  211  A    between atoms: _521  and  _522
REMARK                            x       y       z     vdW  Elec       q    Type
REMARK                         _______ _______ _______ _____ _____    ______ ____
ROOT
ATOM      1  CA  ILE A   6      12.141  27.195  16.497  0.00  0.00    +0.149 C 
ENDROOT
BRANCH   1   3
ATOM      2  C   ASN A   5      10.927  25.891  14.825  0.00  0.00    +0.241 C 
ATOM      3  N   ILE A   6      11.073  27.003  15.534  0.00  0.00    -0.297 N 
ATOM      4  H   ILE A   6      10.389  27.774  15.393  0.00  0.00    +0.150 HD
ATOM      5  O   ASN A   5      11.572  24.851  15.023  0.00  0.00    -0.273 OA
BRANCH   2   6
ATOM      6  CA  ASN A   5       9.848  25.952  13.755  0.00  0.00    +0.158 C 
BRANCH   6   8
ATOM      7  C   VAL A   4      11.303  26.231  11.834  0.00  0.00    +0.241 C 
ATOM      8  N   ASN A   5      10.427  25.494  12.507  0.00  0.00    -0.297 N 
ATOM      9  H   ASN A   5      10.149  24.565  12.130  0.00  0.00    +0.150 HD
ATOM     10  O   VAL A   4      11.547  27.409  12.114  0.00  0.00    -0.273 OA
BRANCH   7  11
ATOM     11  CA  VAL A   4      11.988  25.550  10.660  0.00  0.00    +0.149 C 
BRANCH  11  13
ATOM     12  C   PRO A   3      12.014  26.239   8.311  0.00  0.00    +0.241 C 
ATOM     13  N   VAL A   4      12.209  26.518   9.596  0.00  0.00    -0.297 N 
ATOM     14  H   VAL A   4      12.534  27.472   9.853  0.00  0.00    +0.150 HD
ATOM     15  O   PRO A   3      11.580  25.156   7.911  0.00  0.00    -0.273 OA
BRANCH  12  22
ATOM     16  C   THR A   2      11.304  29.334   8.178  0.00  0.00    +0.246 C 
ATOM     17  O   THR A   2      10.205  28.836   7.986  0.00  0.00    -0.273 OA
ATOM     18  N   PRO A   3      12.433  28.703   7.840  0.00  0.00    -0.272 N 
ATOM     19  CD  PRO A   3      13.795  29.264   7.815  0.00  0.00    +0.094 C 
ATOM     20  CG  PRO A   3      14.653  28.081   7.479  0.00  0.00    +0.024 C 
ATOM     21  CB  PRO A   3      13.794  27.108   6.778  0.00  0.00    +0.031 C 
ATOM     22  CA  PRO A   3      12.377  27.336   7.308  0.00  0.00    +0.152 C 
BRANCH  16  23
ATOM     23  CA  THR A   2      11.441  30.696   8.859  0.00  0.00    +0.176 C 
BRANCH  23  25
ATOM     24  C   PRO A   1      10.414  32.175   7.231  0.00  0.00    +0.239 C 
ATOM     25  N   THR A   2      10.360  31.547   8.396  0.00  0.00    -0.295 N 
ATOM     26  H   THR A   2       9.519  31.667   8.996  0.00  0.00    +0.150 HD
ATOM     27  O   PRO A   1      11.440  32.250   6.540  0.00  0.00    -0.274 OA
BRANCH  24  32
ATOM     28  N   PRO A   1       8.515  33.722   7.757  0.00  0.00    -0.210 NA
ATOM     29  CD  PRO A   1       8.701  35.139   7.379  0.00  0.00    +0.089 C 
ATOM     30  CG  PRO A   1       9.454  35.078   6.080  0.00  0.00    +0.021 C 
ATOM     31  CB  PRO A   1       9.254  33.692   5.540  0.00  0.00    +0.028 C 
ATOM     32  CA  PRO A   1       9.089  32.808   6.780  0.00  0.00    +0.149 C 
ENDBRANCH  24  32
ENDBRANCH  23  25
BRANCH  23  33
ATOM     33  CB  THR A   2      11.439  30.553  10.392  0.00  0.00    +0.137 C 
ATOM     34  CG2 THR A   2      10.092  30.010  10.929  0.00  0.00    +0.034 C 
BRANCH  33  35
ATOM     35  OG1 THR A   2      12.508  29.691  10.802  0.00  0.00    -0.382 OA
ATOM     36  HG1 THR A   2      12.388  28.799  10.390  0.00  0.00    +0.210 HD
ENDBRANCH  33  35
ENDBRANCH  23  33
ENDBRANCH  16  23
ENDBRANCH  12  22
ENDBRANCH  11  13
BRANCH  11  37
ATOM     37  CB  VAL A   4      13.328  24.947  11.145  0.00  0.00    +0.027 C 
ATOM     38  CG2 VAL A   4      14.215  26.036  11.726  0.00  0.00    +0.002 C 
ATOM     39  CG1 VAL A   4      14.027  24.214  10.007  0.00  0.00    +0.002 C 
ENDBRANCH  11  37
ENDBRANCH   7  11
ENDBRANCH   6   8
BRANCH   6  40
ATOM     40  CB  ASN A   5       8.674  25.088  14.216  0.00  0.00    +0.114 C 
BRANCH  40  41
ATOM     41  CG  ASN A   5       7.481  25.171  13.299  0.00  0.00    +0.222 C 
ATOM     42  OD1 ASN A   5       6.958  26.251  13.024  0.00  0.00    -0.275 OA
ATOM     43  ND2 ASN A   5       7.026  24.013  12.829  0.00  0.00    -0.329 N 
ATOM     44 HD21 ASN A   5       7.500  23.124  13.088  0.00  0.00    +0.145 HD
ATOM     45 HD22 ASN A   5       6.196  23.996  12.202  0.00  0.00    +0.145 HD
ENDBRANCH  40  41
ENDBRANCH   6  40
ENDBRANCH   2   6
ENDBRANCH   1   3
BRANCH   1  46
ATOM     46  C   ILE A   6      11.537  27.514  17.858  0.00  0.00    +0.241 C 
ATOM     47  N   ILE A   7      11.795  26.652  18.846  0.00  0.00    -0.297 N 
ATOM     48  H   ILE A   7      12.281  25.758  18.631  0.00  0.00    +0.150 HD
ATOM     49  O   ILE A   6      10.824  28.520  17.996  0.00  0.00    -0.273 OA
BRANCH  47  50
ATOM     50  CA  ILE A   7      11.405  26.945  20.222  0.00  0.00    +0.149 C 
BRANCH  50  51
ATOM     51  C   ILE A   7      12.590  27.618  20.896  0.00  0.00    +0.241 C 
ATOM     52  N   GLY A   8      12.418  28.891  21.244  0.00  0.00    -0.295 N 
ATOM     53  H   GLY A   8      11.494  29.338  21.075  0.00  0.00    +0.150 HD
ATOM     54  O   ILE A   7      13.650  27.006  21.063  0.00  0.00    -0.273 OA
BRANCH  52  55
ATOM     55  CA  GLY A   8      13.475  29.674  21.850  0.00  0.00    +0.176 C 
BRANCH  55  56
ATOM     56  C   GLY A   8      13.395  29.720  23.362  0.00  0.00    +0.243 C 
ATOM     57  O   GLY A   8      12.514  29.108  23.981  0.00  0.00    -0.273 OA
ATOM     58  N   ARG A   9      14.327  30.466  23.947  0.00  0.00    -0.297 N 
ATOM     59  H   ARG A   9      14.933  31.075  23.361  0.00  0.00    +0.150 HD
BRANCH  58  60
ATOM     60  CA  ARG A   9      14.519  30.450  25.392  0.00  0.00    +0.149 C 
BRANCH  60  61
ATOM     61  C   ARG A   9      13.293  30.948  26.146  0.00  0.00    +0.241 C 
ATOM     62  O   ARG A   9      13.059  30.519  27.276  0.00  0.00    -0.273 OA
ATOM     63  N   ASN A  10      12.510  31.831  25.535  0.00  0.00    -0.298 N 
ATOM     64  H   ASN A  10      12.747  32.156  24.576  0.00  0.00    +0.150 HD
BRANCH  63  65
ATOM     65  CA  ASN A  10      11.320  32.347  26.201  0.00  0.00    +0.146 C 
BRANCH  65  66
ATOM     66  C   ASN A  10      10.367  31.236  26.646  0.00  0.00    +0.227 C 
ATOM     67  O   ASN A  10       9.719  31.372  27.690  0.00  0.00    -0.286 OA
ENDBRANCH  65  66
BRANCH  65  68
ATOM     68  CB  ASN A  10      10.596  33.398  25.342  0.00  0.00    +0.112 C 
BRANCH  68  69
ATOM     69  CG  ASN A  10       9.877  32.814  24.161  0.00  0.00    +0.222 C 
ATOM     70  ND2 ASN A  10       8.586  33.146  24.037  0.00  0.00    -0.329 N 
ATOM     71 HD21 ASN A  10       8.138  33.764  24.743  0.00  0.00    +0.145 HD
ATOM     72 HD22 ASN A  10       8.031  32.786  23.235  0.00  0.00    +0.145 HD
ATOM     73  OD1 ASN A  10      10.457  32.085  23.353  0.00  0.00    -0.275 OA
ENDBRANCH  68  69
ENDBRANCH  65  68
ENDBRANCH  63  65
ENDBRANCH  60  61
BRANCH  60  74
ATOM     74  CB  ARG A   9      15.752  31.260  25.795  0.00  0.00    +0.033 C 
BRANCH  74  75
ATOM     75  CG  ARG A   9      17.058  30.665  25.289  0.00  0.00    +0.045 C 
BRANCH  75  76
ATOM     76  CD  ARG A   9      18.304  31.387  25.812  0.00  0.00    +0.174 C 
BRANCH  76  77
ATOM     77  NE  ARG A   9      18.376  32.767  25.326  0.00  0.00    -0.265 N 
ATOM     78  CZ  ARG A   9      18.000  33.844  26.014  0.00  0.00    +0.342 C 
ATOM     79  NH2 ARG A   9      17.572  33.753  27.270  0.00  0.00    -0.292 N 
ATOM     80 HH21 ARG A   9      17.284  34.610  27.785  0.00  0.00    +0.255 HD
ATOM     81 HH22 ARG A   9      17.525  32.825  27.737  0.00  0.00    +0.255 HD
ATOM     82  NH1 ARG A   9      18.099  35.035  25.442  0.00  0.00    -0.292 N 
ATOM     83 HH11 ARG A   9      17.811  35.888  25.963  0.00  0.00    +0.255 HD
ATOM     84 HH12 ARG A   9      18.465  35.117  24.472  0.00  0.00    +0.255 HD
ATOM     85  HE  ARG A   9      18.750  32.918  24.368  0.00  0.00    +0.259 HD
ENDBRANCH  76  77
ENDBRANCH  75  76
ENDBRANCH  74  75
ENDBRANCH  60  74
ENDBRANCH  58  60
ENDBRANCH  55  56
ENDBRANCH  52  55
ENDBRANCH  50  51
BRANCH  50  86
ATOM     86  CB  ILE A   7      11.002  25.690  21.018  0.00  0.00    +0.027 C 
ATOM     87  CG2 ILE A   7      10.639  26.095  22.448  0.00  0.00    +0.002 C 
BRANCH  86  88
ATOM     88  CG1 ILE A   7       9.839  24.991  20.322  0.00  0.00    +0.002 C 
ATOM     89  CD1 ILE A   7       8.602  25.855  20.117  0.00  0.00    +0.000 C 
ENDBRANCH  86  88
ENDBRANCH  50  86
ENDBRANCH  47  50
ENDBRANCH   1  46
BRANCH   1  90
ATOM     90  CB  ILE A   6      13.057  28.350  16.039  0.00  0.00    +0.027 C 
ATOM     91  CG2 ILE A   6      14.065  28.737  17.133  0.00  0.00    +0.002 C 
BRANCH  90  92
ATOM     92  CG1 ILE A   6      13.796  27.955  14.759  0.00  0.00    +0.002 C 
ATOM     93  CD1 ILE A   6      14.354  29.160  14.031  0.00  0.00    +0.000 C 
ENDBRANCH  90  92
ENDBRANCH   1  90
TORSDOF 33
REMARK  Name = ../refined-set-2016/4djr/4djr_pocket.pdb
REMARK  211 active torsions:
REMARK  status: ('A' for Active; 'I' for Inactive)
REMARK    1  A    between atoms: _1  and  _3
REMARK    2  A    between atoms: _3  and  _4
REMARK    3  A    between atoms: _3  and  _6
REMARK    4  A    between atoms: _6  and  _7
REMARK    5  A    between atoms: _7  and  _8
REMARK    6  A    between atoms: _8  and  _9
REMARK    7  A    between atoms: _18  and  _20
REMARK    8  A    between atoms: _20  and  _21
REMARK    9  A    between atoms: _20  and  _23
REMARK   10  A    between atoms: _23  and  _24
REMARK   11  A    between atoms: _27  and  _29
REMARK   12  A    between atoms: _29  and  _30
REMARK   13  A    between atoms: _29  and  _32
REMARK   14  A    between atoms: _32  and  _33
REMARK   15  A    between atoms: _36  and  _38
REMARK   16  A    between atoms: _38  and  _39
REMARK   17  A    between atoms: _38  and  _41
REMARK   18  A    between atoms: _41  and  _42
REMARK   19  A    between atoms: _45  and  _47
REMARK   20  A    between atoms: _47  and  _48
REMARK   21  A    between atoms: _47  and  _50
REMARK   22  A    between atoms: _50  and  _51
REMARK   23  A    between atoms: _54  and  _56
REMARK   24  A    between atoms: _56  and  _57
REMARK   25  A    between atoms: _59  and  _61
REMARK   26  A    between atoms: _61  and  _62
REMARK   27  A    between atoms: _65  and  _67
REMARK   28  A    between atoms: _67  and  _68
REMARK   29  A    between atoms: _67  and  _70
REMARK   30  A    between atoms: _70  and  _71
REMARK   31  A    between atoms: _74  and  _76
REMARK   32  A    between atoms: _76  and  _77
REMARK   33  A    between atoms: _76  and  _79
REMARK   34  A    between atoms: _79  and  _80
REMARK   35  A    between atoms: _83  and  _85
REMARK   36  A    between atoms: _85  and  _86
REMARK   37  A    between atoms: _85  and  _88
REMARK   38  A    between atoms: _88  and  _89
REMARK   39  A    between atoms: _92  and  _94
REMARK   40  A    between atoms: _94  and  _95
REMARK   41  A    between atoms: _94  and  _97
REMARK   42  A    between atoms: _100  and  _102
REMARK   43  A    between atoms: _102  and  _103
REMARK   44  A    between atoms: _102  and  _105
REMARK   45  A    between atoms: _105  and  _106
REMARK   46  A    between atoms: _109  and  _111
REMARK   47  A    between atoms: _111  and  _112
REMARK   48  A    between atoms: _114  and  _116
REMARK   49  A    between atoms: _116  and  _117
REMARK   50  A    between atoms: _119  and  _121
REMARK   51  A    between atoms: _121  and  _122
REMARK   52  A    between atoms: _121  and  _124
REMARK   53  A    between atoms: _124  and  _125
REMARK   54  A    between atoms: _128  and  _130
REMARK   55  A    between atoms: _130  and  _131
REMARK   56  A    between atoms: _133  and  _135
REMARK   57  A    between atoms: _135  and  _136
REMARK   58  A    between atoms: _138  and  _140
REMARK   59  A    between atoms: _140  and  _141
REMARK   60  A    between atoms: _140  and  _143
REMARK   61  A    between atoms: _143  and  _144
REMARK   62  A    between atoms: _150  and  _152
REMARK   63  A    between atoms: _152  and  _153
REMARK   64  A    between atoms: _152  and  _155
REMARK   65  A    between atoms: _155  and  _156
REMARK   66  A    between atoms: _159  and  _161
REMARK   67  A    between atoms: _161  and  _162
REMARK   68  A    between atoms: _161  and  _164
REMARK   69  A    between atoms: _164  and  _165
REMARK   70  A    between atoms: _168  and  _170
REMARK   71  A    between atoms: _170  and  _171
REMARK   72  A    between atoms: _170  and  _173
REMARK   73  A    between atoms: _173  and  _174
REMARK   74  A    between atoms: _178  and  _179
REMARK   75  A    between atoms: _184  and  _186
REMARK   76  A    between atoms: _186  and  _187
REMARK   77  A    between atoms: _186  and  _189
REMARK   78  A    between atoms: _192  and  _194
REMARK   79  A    between atoms: _194  and  _195
REMARK   80  A    between atoms: _194  and  _197
REMARK   81  A    between atoms: _197  and  _198
REMARK   82  A    between atoms: _203  and  _205
REMARK   83  A    between atoms: _205  and  _206
REMARK   84  A    between atoms: _205  and  _208
REMARK   85  A    between atoms: _208  and  _209
REMARK   86  A    between atoms: _212  and  _214
REMARK   87  A    between atoms: _214  and  _215
REMARK   88  A    between atoms: _217  and  _219
REMARK   89  A    between atoms: _219  and  _220
REMARK   90  A    between atoms: _219  and  _222
REMARK   91  A    between atoms: _222  and  _223
REMARK   92  A    between atoms: _223  and  _224
REMARK   93  A    between atoms: _224  and  _225
REMARK   94  A    between atoms: _234  and  _236
REMARK   95  A    between atoms: _236  and  _237
REMARK   96  A    between atoms: _236  and  _239
REMARK   97  A    between atoms: _239  and  _240
REMARK   98  A    between atoms: _245  and  _247
REMARK   99  A    between atoms: _247  and  _248
REMARK  100  A    between atoms: _247  and  _250
REMARK  101  A    between atoms: _250  and  _251
REMARK  102  A    between atoms: _251  and  _252
REMARK  103  A    between atoms: _252  and  _253
REMARK  104  A    between atoms: _262  and  _264
REMARK  105  A    between atoms: _264  and  _265
REMARK  106  A    between atoms: _264  and  _267
REMARK  107  A    between atoms: _267  and  _268
REMARK  108  A    between atoms: _271  and  _273
REMARK  109  A    between atoms: _273  and  _274
REMARK  110  A    between atoms: _273  and  _276
REMARK  111  A    between atoms: _276  and  _277
REMARK  112  A    between atoms: _280  and  _282
REMARK  113  A    between atoms: _282  and  _283
REMARK  114  A    between atoms: _282  and  _285
REMARK  115  A    between atoms: _285  and  _286
REMARK  116  A    between atoms: _289  and  _291
REMARK  117  A    between atoms: _291  and  _292
REMARK  118  A    between atoms: _291  and  _294
REMARK  119  A    between atoms: _294  and  _295
REMARK  120  A    between atoms: _298  and  _300
REMARK  121  A    between atoms: _300  and  _301
REMARK  122  A    between atoms: _303  and  _305
REMARK  123  A    between atoms: _305  and  _306
REMARK  124  A    between atoms: _309  and  _311
REMARK  125  A    between atoms: _311  and  _312
REMARK  126  A    between atoms: _311  and  _314
REMARK  127  A    between atoms: _314  and  _315
REMARK  128  A    between atoms: _318  and  _320
REMARK  129  A    between atoms: _320  and  _321
REMARK  130  A    between atoms: _320  and  _323
REMARK  131  A    between atoms: _323  and  _324
REMARK  132  A    between atoms: _327  and  _329
REMARK  133  A    between atoms: _329  and  _330
REMARK  134  A    between atoms: _329  and  _332
REMARK  135  A    between atoms: _332  and  _333
REMARK  136  A    between atoms: _336  and  _338
REMARK  137  A    between atoms: _338  and  _339
REMARK  138  A    between atoms: _338  and  _341
REMARK  139  A    between atoms: _344  and  _346
REMARK  140  A    between atoms: _346  and  _347
REMARK  141  A    between atoms: _346  and  _349
REMARK  142  A    between atoms: _349  and  _350
REMARK  143  A    between atoms: _350  and  _351
REMARK  144  A    between atoms: _351  and  _352
REMARK  145  A    between atoms: _352  and  _353
REMARK  146  A    between atoms: _357  and  _359
REMARK  147  A    between atoms: _359  and  _360
REMARK  148  A    between atoms: _359  and  _362
REMARK  149  A    between atoms: _362  and  _363
REMARK  150  A    between atoms: _363  and  _364
REMARK  151  A    between atoms: _366  and  _368
REMARK  152  A    between atoms: _368  and  _369
REMARK  153  A    between atoms: _368  and  _371
REMARK  154  A    between atoms: _371  and  _372
REMARK  155  A    between atoms: _375  and  _377
REMARK  156  A    between atoms: _377  and  _378
REMARK  157  A    between atoms: _380  and  _382
REMARK  158  A    between atoms: _382  and  _383
REMARK  159  A    between atoms: _385  and  _387
REMARK  160  A    between atoms: _387  and  _388
REMARK  161  A    between atoms: _387  and  _390
REMARK  162  A    between atoms: _390  and  _391
REMARK  163  A    between atoms: _394  and  _396
REMARK  164  A    between atoms: _396  and  _397
REMARK  165  A    between atoms: _399  and  _401
REMARK  166  A    between atoms: _401  and  _402
REMARK  167  A    between atoms: _404  and  _406
REMARK  168  A    between atoms: _406  and  _407
REMARK  169  A    between atoms: _406  and  _409
REMARK  170  A    between atoms: _409  and  _410
REMARK  171  A    between atoms: _416  and  _418
REMARK  172  A    between atoms: _418  and  _419
REMARK  173  A    between atoms: _418  and  _421
REMARK  174  A    between atoms: _421  and  _422
REMARK  175  A    between atoms: _425  and  _427
REMARK  176  A    between atoms: _427  and  _428
REMARK  177  A    between atoms: _427  and  _430
REMARK  178  A    between atoms: _430  and  _431
REMARK  179  A    between atoms: _435  and  _436
REMARK  180  A    between atoms: _441  and  _443
REMARK  181  A    between atoms: _443  and  _444
REMARK  182  A    between atoms: _443  and  _446
REMARK  183  A    between atoms: _446  and  _447
REMARK  184  A    between atoms: _451  and  _452
REMARK  185  A    between atoms: _457  and  _459
REMARK  186  A    between atoms: _459  and  _460
REMARK  187  A    between atoms: _459  and  _462
REMARK  188  A    between atoms: _465  and  _467
REMARK  189  A    between atoms: _467  and  _468
REMARK  190  A    between atoms: _467  and  _470
REMARK  191  A    between atoms: _470  and  _471
REMARK  192  A    between atoms: _476  and  _478
REMARK  193  A    between atoms: _478  and  _479
REMARK  194  A    between atoms: _478  and  _481
REMARK  195  A    between atoms: _481  and  _482
REMARK  196  A    between atoms: _485  and  _487
REMARK  197  A    between atoms: _487  and  _488
REMARK  198  A    between atoms: _487  and  _490
REMARK  199  A    between atoms: _490  and  _491
REMARK  200  A    between atoms: _494  and  _496
REMARK  201  A    between atoms: _496  and  _497
REMARK  202  A    between atoms: _499  and  _501
REMARK  203  A    between atoms: _501  and  _502
REMARK  204  A    between atoms: _501  and  _504
REMARK  205  A    between atoms: _504  and  _505
REMARK  206  A    between atoms: _505  and  _506
REMARK  207  A    between atoms: _506  and  _507
REMARK  208  A    between atoms: _516  and  _518
REMARK  209  A    between atoms: _518  and  _519
REMARK  210  A    between atoms: _518  and  _521
REMARK  211  A    between atoms: _521  and  _522
REMARK                            x       y       z     vdW  Elec       q    Type
REMARK                         _______ _______ _______ _____ _____    ______ ____
ROOT
ATOM      1  O   HOH     1      19.533  22.798  13.081  0.00  0.00    +0.000 OA
ENDROOT
TORSDOF 0
REMARK  Name = ../refined-set-2016/4djr/4djr_pocket.pdb
REMARK  211 active torsions:
REMARK  status: ('A' for Active; 'I' for Inactive)
REMARK    1  A    between atoms: _1  and  _3
REMARK    2  A    between atoms: _3  and  _4
REMARK    3  A    between atoms: _3  and  _6
REMARK    4  A    between atoms: _6  and  _7
REMARK    5  A    between atoms: _7  and  _8
REMARK    6  A    between atoms: _8  and  _9
REMARK    7  A    between atoms: _18  and  _20
REMARK    8  A    between atoms: _20  and  _21
REMARK    9  A    between atoms: _20  and  _23
REMARK   10  A    between atoms: _23  and  _24
REMARK   11  A    between atoms: _27  and  _29
REMARK   12  A    between atoms: _29  and  _30
REMARK   13  A    between atoms: _29  and  _32
REMARK   14  A    between atoms: _32  and  _33
REMARK   15  A    between atoms: _36  and  _38
REMARK   16  A    between atoms: _38  and  _39
REMARK   17  A    between atoms: _38  and  _41
REMARK   18  A    between atoms: _41  and  _42
REMARK   19  A    between atoms: _45  and  _47
REMARK   20  A    between atoms: _47  and  _48
REMARK   21  A    between atoms: _47  and  _50
REMARK   22  A    between atoms: _50  and  _51
REMARK   23  A    between atoms: _54  and  _56
REMARK   24  A    between atoms: _56  and  _57
REMARK   25  A    between atoms: _59  and  _61
REMARK   26  A    between atoms: _61  and  _62
REMARK   27  A    between atoms: _65  and  _67
REMARK   28  A    between atoms: _67  and  _68
REMARK   29  A    between atoms: _67  and  _70
REMARK   30  A    between atoms: _70  and  _71
REMARK   31  A    between atoms: _74  and  _76
REMARK   32  A    between atoms: _76  and  _77
REMARK   33  A    between atoms: _76  and  _79
REMARK   34  A    between atoms: _79  and  _80
REMARK   35  A    between atoms: _83  and  _85
REMARK   36  A    between atoms: _85  and  _86
REMARK   37  A    between atoms: _85  and  _88
REMARK   38  A    between atoms: _88  and  _89
REMARK   39  A    between atoms: _92  and  _94
REMARK   40  A    between atoms: _94  and  _95
REMARK   41  A    between atoms: _94  and  _97
REMARK   42  A    between atoms: _100  and  _102
REMARK   43  A    between atoms: _102  and  _103
REMARK   44  A    between atoms: _102  and  _105
REMARK   45  A    between atoms: _105  and  _106
REMARK   46  A    between atoms: _109  and  _111
REMARK   47  A    between atoms: _111  and  _112
REMARK   48  A    between atoms: _114  and  _116
REMARK   49  A    between atoms: _116  and  _117
REMARK   50  A    between atoms: _119  and  _121
REMARK   51  A    between atoms: _121  and  _122
REMARK   52  A    between atoms: _121  and  _124
REMARK   53  A    between atoms: _124  and  _125
REMARK   54  A    between atoms: _128  and  _130
REMARK   55  A    between atoms: _130  and  _131
REMARK   56  A    between atoms: _133  and  _135
REMARK   57  A    between atoms: _135  and  _136
REMARK   58  A    between atoms: _138  and  _140
REMARK   59  A    between atoms: _140  and  _141
REMARK   60  A    between atoms: _140  and  _143
REMARK   61  A    between atoms: _143  and  _144
REMARK   62  A    between atoms: _150  and  _152
REMARK   63  A    between atoms: _152  and  _153
REMARK   64  A    between atoms: _152  and  _155
REMARK   65  A    between atoms: _155  and  _156
REMARK   66  A    between atoms: _159  and  _161
REMARK   67  A    between atoms: _161  and  _162
REMARK   68  A    between atoms: _161  and  _164
REMARK   69  A    between atoms: _164  and  _165
REMARK   70  A    between atoms: _168  and  _170
REMARK   71  A    between atoms: _170  and  _171
REMARK   72  A    between atoms: _170  and  _173
REMARK   73  A    between atoms: _173  and  _174
REMARK   74  A    between atoms: _178  and  _179
REMARK   75  A    between atoms: _184  and  _186
REMARK   76  A    between atoms: _186  and  _187
REMARK   77  A    between atoms: _186  and  _189
REMARK   78  A    between atoms: _192  and  _194
REMARK   79  A    between atoms: _194  and  _195
REMARK   80  A    between atoms: _194  and  _197
REMARK   81  A    between atoms: _197  and  _198
REMARK   82  A    between atoms: _203  and  _205
REMARK   83  A    between atoms: _205  and  _206
REMARK   84  A    between atoms: _205  and  _208
REMARK   85  A    between atoms: _208  and  _209
REMARK   86  A    between atoms: _212  and  _214
REMARK   87  A    between atoms: _214  and  _215
REMARK   88  A    between atoms: _217  and  _219
REMARK   89  A    between atoms: _219  and  _220
REMARK   90  A    between atoms: _219  and  _222
REMARK   91  A    between atoms: _222  and  _223
REMARK   92  A    between atoms: _223  and  _224
REMARK   93  A    between atoms: _224  and  _225
REMARK   94  A    between atoms: _234  and  _236
REMARK   95  A    between atoms: _236  and  _237
REMARK   96  A    between atoms: _236  and  _239
REMARK   97  A    between atoms: _239  and  _240
REMARK   98  A    between atoms: _245  and  _247
REMARK   99  A    between atoms: _247  and  _248
REMARK  100  A    between atoms: _247  and  _250
REMARK  101  A    between atoms: _250  and  _251
REMARK  102  A    between atoms: _251  and  _252
REMARK  103  A    between atoms: _252  and  _253
REMARK  104  A    between atoms: _262  and  _264
REMARK  105  A    between atoms: _264  and  _265
REMARK  106  A    between atoms: _264  and  _267
REMARK  107  A    between atoms: _267  and  _268
REMARK  108  A    between atoms: _271  and  _273
REMARK  109  A    between atoms: _273  and  _274
REMARK  110  A    between atoms: _273  and  _276
REMARK  111  A    between atoms: _276  and  _277
REMARK  112  A    between atoms: _280  and  _282
REMARK  113  A    between atoms: _282  and  _283
REMARK  114  A    between atoms: _282  and  _285
REMARK  115  A    between atoms: _285  and  _286
REMARK  116  A    between atoms: _289  and  _291
REMARK  117  A    between atoms: _291  and  _292
REMARK  118  A    between atoms: _291  and  _294
REMARK  119  A    between atoms: _294  and  _295
REMARK  120  A    between atoms: _298  and  _300
REMARK  121  A    between atoms: _300  and  _301
REMARK  122  A    between atoms: _303  and  _305
REMARK  123  A    between atoms: _305  and  _306
REMARK  124  A    between atoms: _309  and  _311
REMARK  125  A    between atoms: _311  and  _312
REMARK  126  A    between atoms: _311  and  _314
REMARK  127  A    between atoms: _314  and  _315
REMARK  128  A    between atoms: _318  and  _320
REMARK  129  A    between atoms: _320  and  _321
REMARK  130  A    between atoms: _320  and  _323
REMARK  131  A    between atoms: _323  and  _324
REMARK  132  A    between atoms: _327  and  _329
REMARK  133  A    between atoms: _329  and  _330
REMARK  134  A    between atoms: _329  and  _332
REMARK  135  A    between atoms: _332  and  _333
REMARK  136  A    between atoms: _336  and  _338
REMARK  137  A    between atoms: _338  and  _339
REMARK  138  A    between atoms: _338  and  _341
REMARK  139  A    between atoms: _344  and  _346
REMARK  140  A    between atoms: _346  and  _347
REMARK  141  A    between atoms: _346  and  _349
REMARK  142  A    between atoms: _349  and  _350
REMARK  143  A    between atoms: _350  and  _351
REMARK  144  A    between atoms: _351  and  _352
REMARK  145  A    between atoms: _352  and  _353
REMARK  146  A    between atoms: _357  and  _359
REMARK  147  A    between atoms: _359  and  _360
REMARK  148  A    between atoms: _359  and  _362
REMARK  149  A    between atoms: _362  and  _363
REMARK  150  A    between atoms: _363  and  _364
REMARK  151  A    between atoms: _366  and  _368
REMARK  152  A    between atoms: _368  and  _369
REMARK  153  A    between atoms: _368  and  _371
REMARK  154  A    between atoms: _371  and  _372
REMARK  155  A    between atoms: _375  and  _377
REMARK  156  A    between atoms: _377  and  _378
REMARK  157  A    between atoms: _380  and  _382
REMARK  158  A    between atoms: _382  and  _383
REMARK  159  A    between atoms: _385  and  _387
REMARK  160  A    between atoms: _387  and  _388
REMARK  161  A    between atoms: _387  and  _390
REMARK  162  A    between atoms: _390  and  _391
REMARK  163  A    between atoms: _394  and  _396
REMARK  164  A    between atoms: _396  and  _397
REMARK  165  A    between atoms: _399  and  _401
REMARK  166  A    between atoms: _401  and  _402
REMARK  167  A    between atoms: _404  and  _406
REMARK  168  A    between atoms: _406  and  _407
REMARK  169  A    between atoms: _406  and  _409
REMARK  170  A    between atoms: _409  and  _410
REMARK  171  A    between atoms: _416  and  _418
REMARK  172  A    between atoms: _418  and  _419
REMARK  173  A    between atoms: _418  and  _421
REMARK  174  A    between atoms: _421  and  _422
REMARK  175  A    between atoms: _425  and  _427
REMARK  176  A    between atoms: _427  and  _428
REMARK  177  A    between atoms: _427  and  _430
REMARK  178  A    between atoms: _430  and  _431
REMARK  179  A    between atoms: _435  and  _436
REMARK  180  A    between atoms: _441  and  _443
REMARK  181  A    between atoms: _443  and  _444
REMARK  182  A    between atoms: _443  and  _446
REMARK  183  A    between atoms: _446  and  _447
REMARK  184  A    between atoms: _451  and  _452
REMARK  185  A    between atoms: _457  and  _459
REMARK  186  A    between atoms: _459  and  _460
REMARK  187  A    between atoms: _459  and  _462
REMARK  188  A    between atoms: _465  and  _467
REMARK  189  A    between atoms: _467  and  _468
REMARK  190  A    between atoms: _467  and  _470
REMARK  191  A    between atoms: _470  and  _471
REMARK  192  A    between atoms: _476  and  _478
REMARK  193  A    between atoms: _478  and  _479
REMARK  194  A    between atoms: _478  and  _481
REMARK  195  A    between atoms: _481  and  _482
REMARK  196  A    between atoms: _485  and  _487
REMARK  197  A    between atoms: _487  and  _488
REMARK  198  A    between atoms: _487  and  _490
REMARK  199  A    between atoms: _490  and  _491
REMARK  200  A    between atoms: _494  and  _496
REMARK  201  A    between atoms: _496  and  _497
REMARK  202  A    between atoms: _499  and  _501
REMARK  203  A    between atoms: _501  and  _502
REMARK  204  A    between atoms: _501  and  _504
REMARK  205  A    between atoms: _504  and  _505
REMARK  206  A    between atoms: _505  and  _506
REMARK  207  A    between atoms: _506  and  _507
REMARK  208  A    between atoms: _516  and  _518
REMARK  209  A    between atoms: _518  and  _519
REMARK  210  A    between atoms: _518  and  _521
REMARK  211  A    between atoms: _521  and  _522
REMARK                            x       y       z     vdW  Elec       q    Type
REMARK                         _______ _______ _______ _____ _____    ______ ____
ROOT
ATOM      1  O   HOH     1      20.329  21.442  15.367  0.00  0.00    +0.000 OA
ENDROOT
TORSDOF 0
REMARK  Name = ../refined-set-2016/4djr/4djr_pocket.pdb
REMARK  211 active torsions:
REMARK  status: ('A' for Active; 'I' for Inactive)
REMARK    1  A    between atoms: _1  and  _3
REMARK    2  A    between atoms: _3  and  _4
REMARK    3  A    between atoms: _3  and  _6
REMARK    4  A    between atoms: _6  and  _7
REMARK    5  A    between atoms: _7  and  _8
REMARK    6  A    between atoms: _8  and  _9
REMARK    7  A    between atoms: _18  and  _20
REMARK    8  A    between atoms: _20  and  _21
REMARK    9  A    between atoms: _20  and  _23
REMARK   10  A    between atoms: _23  and  _24
REMARK   11  A    between atoms: _27  and  _29
REMARK   12  A    between atoms: _29  and  _30
REMARK   13  A    between atoms: _29  and  _32
REMARK   14  A    between atoms: _32  and  _33
REMARK   15  A    between atoms: _36  and  _38
REMARK   16  A    between atoms: _38  and  _39
REMARK   17  A    between atoms: _38  and  _41
REMARK   18  A    between atoms: _41  and  _42
REMARK   19  A    between atoms: _45  and  _47
REMARK   20  A    between atoms: _47  and  _48
REMARK   21  A    between atoms: _47  and  _50
REMARK   22  A    between atoms: _50  and  _51
REMARK   23  A    between atoms: _54  and  _56
REMARK   24  A    between atoms: _56  and  _57
REMARK   25  A    between atoms: _59  and  _61
REMARK   26  A    between atoms: _61  and  _62
REMARK   27  A    between atoms: _65  and  _67
REMARK   28  A    between atoms: _67  and  _68
REMARK   29  A    between atoms: _67  and  _70
REMARK   30  A    between atoms: _70  and  _71
REMARK   31  A    between atoms: _74  and  _76
REMARK   32  A    between atoms: _76  and  _77
REMARK   33  A    between atoms: _76  and  _79
REMARK   34  A    between atoms: _79  and  _80
REMARK   35  A    between atoms: _83  and  _85
REMARK   36  A    between atoms: _85  and  _86
REMARK   37  A    between atoms: _85  and  _88
REMARK   38  A    between atoms: _88  and  _89
REMARK   39  A    between atoms: _92  and  _94
REMARK   40  A    between atoms: _94  and  _95
REMARK   41  A    between atoms: _94  and  _97
REMARK   42  A    between atoms: _100  and  _102
REMARK   43  A    between atoms: _102  and  _103
REMARK   44  A    between atoms: _102  and  _105
REMARK   45  A    between atoms: _105  and  _106
REMARK   46  A    between atoms: _109  and  _111
REMARK   47  A    between atoms: _111  and  _112
REMARK   48  A    between atoms: _114  and  _116
REMARK   49  A    between atoms: _116  and  _117
REMARK   50  A    between atoms: _119  and  _121
REMARK   51  A    between atoms: _121  and  _122
REMARK   52  A    between atoms: _121  and  _124
REMARK   53  A    between atoms: _124  and  _125
REMARK   54  A    between atoms: _128  and  _130
REMARK   55  A    between atoms: _130  and  _131
REMARK   56  A    between atoms: _133  and  _135
REMARK   57  A    between atoms: _135  and  _136
REMARK   58  A    between atoms: _138  and  _140
REMARK   59  A    between atoms: _140  and  _141
REMARK   60  A    between atoms: _140  and  _143
REMARK   61  A    between atoms: _143  and  _144
REMARK   62  A    between atoms: _150  and  _152
REMARK   63  A    between atoms: _152  and  _153
REMARK   64  A    between atoms: _152  and  _155
REMARK   65  A    between atoms: _155  and  _156
REMARK   66  A    between atoms: _159  and  _161
REMARK   67  A    between atoms: _161  and  _162
REMARK   68  A    between atoms: _161  and  _164
REMARK   69  A    between atoms: _164  and  _165
REMARK   70  A    between atoms: _168  and  _170
REMARK   71  A    between atoms: _170  and  _171
REMARK   72  A    between atoms: _170  and  _173
REMARK   73  A    between atoms: _173  and  _174
REMARK   74  A    between atoms: _178  and  _179
REMARK   75  A    between atoms: _184  and  _186
REMARK   76  A    between atoms: _186  and  _187
REMARK   77  A    between atoms: _186  and  _189
REMARK   78  A    between atoms: _192  and  _194
REMARK   79  A    between atoms: _194  and  _195
REMARK   80  A    between atoms: _194  and  _197
REMARK   81  A    between atoms: _197  and  _198
REMARK   82  A    between atoms: _203  and  _205
REMARK   83  A    between atoms: _205  and  _206
REMARK   84  A    between atoms: _205  and  _208
REMARK   85  A    between atoms: _208  and  _209
REMARK   86  A    between atoms: _212  and  _214
REMARK   87  A    between atoms: _214  and  _215
REMARK   88  A    between atoms: _217  and  _219
REMARK   89  A    between atoms: _219  and  _220
REMARK   90  A    between atoms: _219  and  _222
REMARK   91  A    between atoms: _222  and  _223
REMARK   92  A    between atoms: _223  and  _224
REMARK   93  A    between atoms: _224  and  _225
REMARK   94  A    between atoms: _234  and  _236
REMARK   95  A    between atoms: _236  and  _237
REMARK   96  A    between atoms: _236  and  _239
REMARK   97  A    between atoms: _239  and  _240
REMARK   98  A    between atoms: _245  and  _247
REMARK   99  A    between atoms: _247  and  _248
REMARK  100  A    between atoms: _247  and  _250
REMARK  101  A    between atoms: _250  and  _251
REMARK  102  A    between atoms: _251  and  _252
REMARK  103  A    between atoms: _252  and  _253
REMARK  104  A    between atoms: _262  and  _264
REMARK  105  A    between atoms: _264  and  _265
REMARK  106  A    between atoms: _264  and  _267
REMARK  107  A    between atoms: _267  and  _268
REMARK  108  A    between atoms: _271  and  _273
REMARK  109  A    between atoms: _273  and  _274
REMARK  110  A    between atoms: _273  and  _276
REMARK  111  A    between atoms: _276  and  _277
REMARK  112  A    between atoms: _280  and  _282
REMARK  113  A    between atoms: _282  and  _283
REMARK  114  A    between atoms: _282  and  _285
REMARK  115  A    between atoms: _285  and  _286
REMARK  116  A    between atoms: _289  and  _291
REMARK  117  A    between atoms: _291  and  _292
REMARK  118  A    between atoms: _291  and  _294
REMARK  119  A    between atoms: _294  and  _295
REMARK  120  A    between atoms: _298  and  _300
REMARK  121  A    between atoms: _300  and  _301
REMARK  122  A    between atoms: _303  and  _305
REMARK  123  A    between atoms: _305  and  _306
REMARK  124  A    between atoms: _309  and  _311
REMARK  125  A    between atoms: _311  and  _312
REMARK  126  A    between atoms: _311  and  _314
REMARK  127  A    between atoms: _314  and  _315
REMARK  128  A    between atoms: _318  and  _320
REMARK  129  A    between atoms: _320  and  _321
REMARK  130  A    between atoms: _320  and  _323
REMARK  131  A    between atoms: _323  and  _324
REMARK  132  A    between atoms: _327  and  _329
REMARK  133  A    between atoms: _329  and  _330
REMARK  134  A    between atoms: _329  and  _332
REMARK  135  A    between atoms: _332  and  _333
REMARK  136  A    between atoms: _336  and  _338
REMARK  137  A    between atoms: _338  and  _339
REMARK  138  A    between atoms: _338  and  _341
REMARK  139  A    between atoms: _344  and  _346
REMARK  140  A    between atoms: _346  and  _347
REMARK  141  A    between atoms: _346  and  _349
REMARK  142  A    between atoms: _349  and  _350
REMARK  143  A    between atoms: _350  and  _351
REMARK  144  A    between atoms: _351  and  _352
REMARK  145  A    between atoms: _352  and  _353
REMARK  146  A    between atoms: _357  and  _359
REMARK  147  A    between atoms: _359  and  _360
REMARK  148  A    between atoms: _359  and  _362
REMARK  149  A    between atoms: _362  and  _363
REMARK  150  A    between atoms: _363  and  _364
REMARK  151  A    between atoms: _366  and  _368
REMARK  152  A    between atoms: _368  and  _369
REMARK  153  A    between atoms: _368  and  _371
REMARK  154  A    between atoms: _371  and  _372
REMARK  155  A    between atoms: _375  and  _377
REMARK  156  A    between atoms: _377  and  _378
REMARK  157  A    between atoms: _380  and  _382
REMARK  158  A    between atoms: _382  and  _383
REMARK  159  A    between atoms: _385  and  _387
REMARK  160  A    between atoms: _387  and  _388
REMARK  161  A    between atoms: _387  and  _390
REMARK  162  A    between atoms: _390  and  _391
REMARK  163  A    between atoms: _394  and  _396
REMARK  164  A    between atoms: _396  and  _397
REMARK  165  A    between atoms: _399  and  _401
REMARK  166  A    between atoms: _401  and  _402
REMARK  167  A    between atoms: _404  and  _406
REMARK  168  A    between atoms: _406  and  _407
REMARK  169  A    between atoms: _406  and  _409
REMARK  170  A    between atoms: _409  and  _410
REMARK  171  A    between atoms: _416  and  _418
REMARK  172  A    between atoms: _418  and  _419
REMARK  173  A    between atoms: _418  and  _421
REMARK  174  A    between atoms: _421  and  _422
REMARK  175  A    between atoms: _425  and  _427
REMARK  176  A    between atoms: _427  and  _428
REMARK  177  A    between atoms: _427  and  _430
REMARK  178  A    between atoms: _430  and  _431
REMARK  179  A    between atoms: _435  and  _436
REMARK  180  A    between atoms: _441  and  _443
REMARK  181  A    between atoms: _443  and  _444
REMARK  182  A    between atoms: _443  and  _446
REMARK  183  A    between atoms: _446  and  _447
REMARK  184  A    between atoms: _451  and  _452
REMARK  185  A    between atoms: _457  and  _459
REMARK  186  A    between atoms: _459  and  _460
REMARK  187  A    between atoms: _459  and  _462
REMARK  188  A    between atoms: _465  and  _467
REMARK  189  A    between atoms: _467  and  _468
REMARK  190  A    between atoms: _467  and  _470
REMARK  191  A    between atoms: _470  and  _471
REMARK  192  A    between atoms: _476  and  _478
REMARK  193  A    between atoms: _478  and  _479
REMARK  194  A    between atoms: _478  and  _481
REMARK  195  A    between atoms: _481  and  _482
REMARK  196  A    between atoms: _485  and  _487
REMARK  197  A    between atoms: _487  and  _488
REMARK  198  A    between atoms: _487  and  _490
REMARK  199  A    between atoms: _490  and  _491
REMARK  200  A    between atoms: _494  and  _496
REMARK  201  A    between atoms: _496  and  _497
REMARK  202  A    between atoms: _499  and  _501
REMARK  203  A    between atoms: _501  and  _502
REMARK  204  A    between atoms: _501  and  _504
REMARK  205  A    between atoms: _504  and  _505
REMARK  206  A    between atoms: _505  and  _506
REMARK  207  A    between atoms: _506  and  _507
REMARK  208  A    between atoms: _516  and  _518
REMARK  209  A    between atoms: _518  and  _519
REMARK  210  A    between atoms: _518  and  _521
REMARK  211  A    between atoms: _521  and  _522
REMARK                            x       y       z     vdW  Elec       q    Type
REMARK                         _______ _______ _______ _____ _____    ______ ____
ROOT
ATOM      1  O   HOH     1      25.308  25.496  11.540  0.00  0.00    +0.000 OA
ENDROOT
TORSDOF 0
REMARK  Name = ../refined-set-2016/4djr/4djr_pocket.pdb
REMARK  211 active torsions:
REMARK  status: ('A' for Active; 'I' for Inactive)
REMARK    1  A    between atoms: _1  and  _3
REMARK    2  A    between atoms: _3  and  _4
REMARK    3  A    between atoms: _3  and  _6
REMARK    4  A    between atoms: _6  and  _7
REMARK    5  A    between atoms: _7  and  _8
REMARK    6  A    between atoms: _8  and  _9
REMARK    7  A    between atoms: _18  and  _20
REMARK    8  A    between atoms: _20  and  _21
REMARK    9  A    between atoms: _20  and  _23
REMARK   10  A    between atoms: _23  and  _24
REMARK   11  A    between atoms: _27  and  _29
REMARK   12  A    between atoms: _29  and  _30
REMARK   13  A    between atoms: _29  and  _32
REMARK   14  A    between atoms: _32  and  _33
REMARK   15  A    between atoms: _36  and  _38
REMARK   16  A    between atoms: _38  and  _39
REMARK   17  A    between atoms: _38  and  _41
REMARK   18  A    between atoms: _41  and  _42
REMARK   19  A    between atoms: _45  and  _47
REMARK   20  A    between atoms: _47  and  _48
REMARK   21  A    between atoms: _47  and  _50
REMARK   22  A    between atoms: _50  and  _51
REMARK   23  A    between atoms: _54  and  _56
REMARK   24  A    between atoms: _56  and  _57
REMARK   25  A    between atoms: _59  and  _61
REMARK   26  A    between atoms: _61  and  _62
REMARK   27  A    between atoms: _65  and  _67
REMARK   28  A    between atoms: _67  and  _68
REMARK   29  A    between atoms: _67  and  _70
REMARK   30  A    between atoms: _70  and  _71
REMARK   31  A    between atoms: _74  and  _76
REMARK   32  A    between atoms: _76  and  _77
REMARK   33  A    between atoms: _76  and  _79
REMARK   34  A    between atoms: _79  and  _80
REMARK   35  A    between atoms: _83  and  _85
REMARK   36  A    between atoms: _85  and  _86
REMARK   37  A    between atoms: _85  and  _88
REMARK   38  A    between atoms: _88  and  _89
REMARK   39  A    between atoms: _92  and  _94
REMARK   40  A    between atoms: _94  and  _95
REMARK   41  A    between atoms: _94  and  _97
REMARK   42  A    between atoms: _100  and  _102
REMARK   43  A    between atoms: _102  and  _103
REMARK   44  A    between atoms: _102  and  _105
REMARK   45  A    between atoms: _105  and  _106
REMARK   46  A    between atoms: _109  and  _111
REMARK   47  A    between atoms: _111  and  _112
REMARK   48  A    between atoms: _114  and  _116
REMARK   49  A    between atoms: _116  and  _117
REMARK   50  A    between atoms: _119  and  _121
REMARK   51  A    between atoms: _121  and  _122
REMARK   52  A    between atoms: _121  and  _124
REMARK   53  A    between atoms: _124  and  _125
REMARK   54  A    between atoms: _128  and  _130
REMARK   55  A    between atoms: _130  and  _131
REMARK   56  A    between atoms: _133  and  _135
REMARK   57  A    between atoms: _135  and  _136
REMARK   58  A    between atoms: _138  and  _140
REMARK   59  A    between atoms: _140  and  _141
REMARK   60  A    between atoms: _140  and  _143
REMARK   61  A    between atoms: _143  and  _144
REMARK   62  A    between atoms: _150  and  _152
REMARK   63  A    between atoms: _152  and  _153
REMARK   64  A    between atoms: _152  and  _155
REMARK   65  A    between atoms: _155  and  _156
REMARK   66  A    between atoms: _159  and  _161
REMARK   67  A    between atoms: _161  and  _162
REMARK   68  A    between atoms: _161  and  _164
REMARK   69  A    between atoms: _164  and  _165
REMARK   70  A    between atoms: _168  and  _170
REMARK   71  A    between atoms: _170  and  _171
REMARK   72  A    between atoms: _170  and  _173
REMARK   73  A    between atoms: _173  and  _174
REMARK   74  A    between atoms: _178  and  _179
REMARK   75  A    between atoms: _184  and  _186
REMARK   76  A    between atoms: _186  and  _187
REMARK   77  A    between atoms: _186  and  _189
REMARK   78  A    between atoms: _192  and  _194
REMARK   79  A    between atoms: _194  and  _195
REMARK   80  A    between atoms: _194  and  _197
REMARK   81  A    between atoms: _197  and  _198
REMARK   82  A    between atoms: _203  and  _205
REMARK   83  A    between atoms: _205  and  _206
REMARK   84  A    between atoms: _205  and  _208
REMARK   85  A    between atoms: _208  and  _209
REMARK   86  A    between atoms: _212  and  _214
REMARK   87  A    between atoms: _214  and  _215
REMARK   88  A    between atoms: _217  and  _219
REMARK   89  A    between atoms: _219  and  _220
REMARK   90  A    between atoms: _219  and  _222
REMARK   91  A    between atoms: _222  and  _223
REMARK   92  A    between atoms: _223  and  _224
REMARK   93  A    between atoms: _224  and  _225
REMARK   94  A    between atoms: _234  and  _236
REMARK   95  A    between atoms: _236  and  _237
REMARK   96  A    between atoms: _236  and  _239
REMARK   97  A    between atoms: _239  and  _240
REMARK   98  A    between atoms: _245  and  _247
REMARK   99  A    between atoms: _247  and  _248
REMARK  100  A    between atoms: _247  and  _250
REMARK  101  A    between atoms: _250  and  _251
REMARK  102  A    between atoms: _251  and  _252
REMARK  103  A    between atoms: _252  and  _253
REMARK  104  A    between atoms: _262  and  _264
REMARK  105  A    between atoms: _264  and  _265
REMARK  106  A    between atoms: _264  and  _267
REMARK  107  A    between atoms: _267  and  _268
REMARK  108  A    between atoms: _271  and  _273
REMARK  109  A    between atoms: _273  and  _274
REMARK  110  A    between atoms: _273  and  _276
REMARK  111  A    between atoms: _276  and  _277
REMARK  112  A    between atoms: _280  and  _282
REMARK  113  A    between atoms: _282  and  _283
REMARK  114  A    between atoms: _282  and  _285
REMARK  115  A    between atoms: _285  and  _286
REMARK  116  A    between atoms: _289  and  _291
REMARK  117  A    between atoms: _291  and  _292
REMARK  118  A    between atoms: _291  and  _294
REMARK  119  A    between atoms: _294  and  _295
REMARK  120  A    between atoms: _298  and  _300
REMARK  121  A    between atoms: _300  and  _301
REMARK  122  A    between atoms: _303  and  _305
REMARK  123  A    between atoms: _305  and  _306
REMARK  124  A    between atoms: _309  and  _311
REMARK  125  A    between atoms: _311  and  _312
REMARK  126  A    between atoms: _311  and  _314
REMARK  127  A    between atoms: _314  and  _315
REMARK  128  A    between atoms: _318  and  _320
REMARK  129  A    between atoms: _320  and  _321
REMARK  130  A    between atoms: _320  and  _323
REMARK  131  A    between atoms: _323  and  _324
REMARK  132  A    between atoms: _327  and  _329
REMARK  133  A    between atoms: _329  and  _330
REMARK  134  A    between atoms: _329  and  _332
REMARK  135  A    between atoms: _332  and  _333
REMARK  136  A    between atoms: _336  and  _338
REMARK  137  A    between atoms: _338  and  _339
REMARK  138  A    between atoms: _338  and  _341
REMARK  139  A    between atoms: _344  and  _346
REMARK  140  A    between atoms: _346  and  _347
REMARK  141  A    between atoms: _346  and  _349
REMARK  142  A    between atoms: _349  and  _350
REMARK  143  A    between atoms: _350  and  _351
REMARK  144  A    between atoms: _351  and  _352
REMARK  145  A    between atoms: _352  and  _353
REMARK  146  A    between atoms: _357  and  _359
REMARK  147  A    between atoms: _359  and  _360
REMARK  148  A    between atoms: _359  and  _362
REMARK  149  A    between atoms: _362  and  _363
REMARK  150  A    between atoms: _363  and  _364
REMARK  151  A    between atoms: _366  and  _368
REMARK  152  A    between atoms: _368  and  _369
REMARK  153  A    between atoms: _368  and  _371
REMARK  154  A    between atoms: _371  and  _372
REMARK  155  A    between atoms: _375  and  _377
REMARK  156  A    between atoms: _377  and  _378
REMARK  157  A    between atoms: _380  and  _382
REMARK  158  A    between atoms: _382  and  _383
REMARK  159  A    between atoms: _385  and  _387
REMARK  160  A    between atoms: _387  and  _388
REMARK  161  A    between atoms: _387  and  _390
REMARK  162  A    between atoms: _390  and  _391
REMARK  163  A    between atoms: _394  and  _396
REMARK  164  A    between atoms: _396  and  _397
REMARK  165  A    between atoms: _399  and  _401
REMARK  166  A    between atoms: _401  and  _402
REMARK  167  A    between atoms: _404  and  _406
REMARK  168  A    between atoms: _406  and  _407
REMARK  169  A    between atoms: _406  and  _409
REMARK  170  A    between atoms: _409  and  _410
REMARK  171  A    between atoms: _416  and  _418
REMARK  172  A    between atoms: _418  and  _419
REMARK  173  A    between atoms: _418  and  _421
REMARK  174  A    between atoms: _421  and  _422
REMARK  175  A    between atoms: _425  and  _427
REMARK  176  A    between atoms: _427  and  _428
REMARK  177  A    between atoms: _427  and  _430
REMARK  178  A    between atoms: _430  and  _431
REMARK  179  A    between atoms: _435  and  _436
REMARK  180  A    between atoms: _441  and  _443
REMARK  181  A    between atoms: _443  and  _444
REMARK  182  A    between atoms: _443  and  _446
REMARK  183  A    between atoms: _446  and  _447
REMARK  184  A    between atoms: _451  and  _452
REMARK  185  A    between atoms: _457  and  _459
REMARK  186  A    between atoms: _459  and  _460
REMARK  187  A    between atoms: _459  and  _462
REMARK  188  A    between atoms: _465  and  _467
REMARK  189  A    between atoms: _467  and  _468
REMARK  190  A    between atoms: _467  and  _470
REMARK  191  A    between atoms: _470  and  _471
REMARK  192  A    between atoms: _476  and  _478
REMARK  193  A    between atoms: _478  and  _479
REMARK  194  A    between atoms: _478  and  _481
REMARK  195  A    between atoms: _481  and  _482
REMARK  196  A    between atoms: _485  and  _487
REMARK  197  A    between atoms: _487  and  _488
REMARK  198  A    between atoms: _487  and  _490
REMARK  199  A    between atoms: _490  and  _491
REMARK  200  A    between atoms: _494  and  _496
REMARK  201  A    between atoms: _496  and  _497
REMARK  202  A    between atoms: _499  and  _501
REMARK  203  A    between atoms: _501  and  _502
REMARK  204  A    between atoms: _501  and  _504
REMARK  205  A    between atoms: _504  and  _505
REMARK  206  A    between atoms: _505  and  _506
REMARK  207  A    between atoms: _506  and  _507
REMARK  208  A    between atoms: _516  and  _518
REMARK  209  A    between atoms: _518  and  _519
REMARK  210  A    between atoms: _518  and  _521
REMARK  211  A    between atoms: _521  and  _522
REMARK                            x       y       z     vdW  Elec       q    Type
REMARK                         _______ _______ _______ _____ _____    ______ ____
ROOT
ATOM      1  O   HOH     1      26.178  18.311  13.700  0.00  0.00    +0.000 OA
ENDROOT
TORSDOF 0
REMARK  Name = ../refined-set-2016/4djr/4djr_pocket.pdb
REMARK  211 active torsions:
REMARK  status: ('A' for Active; 'I' for Inactive)
REMARK    1  A    between atoms: _1  and  _3
REMARK    2  A    between atoms: _3  and  _4
REMARK    3  A    between atoms: _3  and  _6
REMARK    4  A    between atoms: _6  and  _7
REMARK    5  A    between atoms: _7  and  _8
REMARK    6  A    between atoms: _8  and  _9
REMARK    7  A    between atoms: _18  and  _20
REMARK    8  A    between atoms: _20  and  _21
REMARK    9  A    between atoms: _20  and  _23
REMARK   10  A    between atoms: _23  and  _24
REMARK   11  A    between atoms: _27  and  _29
REMARK   12  A    between atoms: _29  and  _30
REMARK   13  A    between atoms: _29  and  _32
REMARK   14  A    between atoms: _32  and  _33
REMARK   15  A    between atoms: _36  and  _38
REMARK   16  A    between atoms: _38  and  _39
REMARK   17  A    between atoms: _38  and  _41
REMARK   18  A    between atoms: _41  and  _42
REMARK   19  A    between atoms: _45  and  _47
REMARK   20  A    between atoms: _47  and  _48
REMARK   21  A    between atoms: _47  and  _50
REMARK   22  A    between atoms: _50  and  _51
REMARK   23  A    between atoms: _54  and  _56
REMARK   24  A    between atoms: _56  and  _57
REMARK   25  A    between atoms: _59  and  _61
REMARK   26  A    between atoms: _61  and  _62
REMARK   27  A    between atoms: _65  and  _67
REMARK   28  A    between atoms: _67  and  _68
REMARK   29  A    between atoms: _67  and  _70
REMARK   30  A    between atoms: _70  and  _71
REMARK   31  A    between atoms: _74  and  _76
REMARK   32  A    between atoms: _76  and  _77
REMARK   33  A    between atoms: _76  and  _79
REMARK   34  A    between atoms: _79  and  _80
REMARK   35  A    between atoms: _83  and  _85
REMARK   36  A    between atoms: _85  and  _86
REMARK   37  A    between atoms: _85  and  _88
REMARK   38  A    between atoms: _88  and  _89
REMARK   39  A    between atoms: _92  and  _94
REMARK   40  A    between atoms: _94  and  _95
REMARK   41  A    between atoms: _94  and  _97
REMARK   42  A    between atoms: _100  and  _102
REMARK   43  A    between atoms: _102  and  _103
REMARK   44  A    between atoms: _102  and  _105
REMARK   45  A    between atoms: _105  and  _106
REMARK   46  A    between atoms: _109  and  _111
REMARK   47  A    between atoms: _111  and  _112
REMARK   48  A    between atoms: _114  and  _116
REMARK   49  A    between atoms: _116  and  _117
REMARK   50  A    between atoms: _119  and  _121
REMARK   51  A    between atoms: _121  and  _122
REMARK   52  A    between atoms: _121  and  _124
REMARK   53  A    between atoms: _124  and  _125
REMARK   54  A    between atoms: _128  and  _130
REMARK   55  A    between atoms: _130  and  _131
REMARK   56  A    between atoms: _133  and  _135
REMARK   57  A    between atoms: _135  and  _136
REMARK   58  A    between atoms: _138  and  _140
REMARK   59  A    between atoms: _140  and  _141
REMARK   60  A    between atoms: _140  and  _143
REMARK   61  A    between atoms: _143  and  _144
REMARK   62  A    between atoms: _150  and  _152
REMARK   63  A    between atoms: _152  and  _153
REMARK   64  A    between atoms: _152  and  _155
REMARK   65  A    between atoms: _155  and  _156
REMARK   66  A    between atoms: _159  and  _161
REMARK   67  A    between atoms: _161  and  _162
REMARK   68  A    between atoms: _161  and  _164
REMARK   69  A    between atoms: _164  and  _165
REMARK   70  A    between atoms: _168  and  _170
REMARK   71  A    between atoms: _170  and  _171
REMARK   72  A    between atoms: _170  and  _173
REMARK   73  A    between atoms: _173  and  _174
REMARK   74  A    between atoms: _178  and  _179
REMARK   75  A    between atoms: _184  and  _186
REMARK   76  A    between atoms: _186  and  _187
REMARK   77  A    between atoms: _186  and  _189
REMARK   78  A    between atoms: _192  and  _194
REMARK   79  A    between atoms: _194  and  _195
REMARK   80  A    between atoms: _194  and  _197
REMARK   81  A    between atoms: _197  and  _198
REMARK   82  A    between atoms: _203  and  _205
REMARK   83  A    between atoms: _205  and  _206
REMARK   84  A    between atoms: _205  and  _208
REMARK   85  A    between atoms: _208  and  _209
REMARK   86  A    between atoms: _212  and  _214
REMARK   87  A    between atoms: _214  and  _215
REMARK   88  A    between atoms: _217  and  _219
REMARK   89  A    between atoms: _219  and  _220
REMARK   90  A    between atoms: _219  and  _222
REMARK   91  A    between atoms: _222  and  _223
REMARK   92  A    between atoms: _223  and  _224
REMARK   93  A    between atoms: _224  and  _225
REMARK   94  A    between atoms: _234  and  _236
REMARK   95  A    between atoms: _236  and  _237
REMARK   96  A    between atoms: _236  and  _239
REMARK   97  A    between atoms: _239  and  _240
REMARK   98  A    between atoms: _245  and  _247
REMARK   99  A    between atoms: _247  and  _248
REMARK  100  A    between atoms: _247  and  _250
REMARK  101  A    between atoms: _250  and  _251
REMARK  102  A    between atoms: _251  and  _252
REMARK  103  A    between atoms: _252  and  _253
REMARK  104  A    between atoms: _262  and  _264
REMARK  105  A    between atoms: _264  and  _265
REMARK  106  A    between atoms: _264  and  _267
REMARK  107  A    between atoms: _267  and  _268
REMARK  108  A    between atoms: _271  and  _273
REMARK  109  A    between atoms: _273  and  _274
REMARK  110  A    between atoms: _273  and  _276
REMARK  111  A    between atoms: _276  and  _277
REMARK  112  A    between atoms: _280  and  _282
REMARK  113  A    between atoms: _282  and  _283
REMARK  114  A    between atoms: _282  and  _285
REMARK  115  A    between atoms: _285  and  _286
REMARK  116  A    between atoms: _289  and  _291
REMARK  117  A    between atoms: _291  and  _292
REMARK  118  A    between atoms: _291  and  _294
REMARK  119  A    between atoms: _294  and  _295
REMARK  120  A    between atoms: _298  and  _300
REMARK  121  A    between atoms: _300  and  _301
REMARK  122  A    between atoms: _303  and  _305
REMARK  123  A    between atoms: _305  and  _306
REMARK  124  A    between atoms: _309  and  _311
REMARK  125  A    between atoms: _311  and  _312
REMARK  126  A    between atoms: _311  and  _314
REMARK  127  A    between atoms: _314  and  _315
REMARK  128  A    between atoms: _318  and  _320
REMARK  129  A    between atoms: _320  and  _321
REMARK  130  A    between atoms: _320  and  _323
REMARK  131  A    between atoms: _323  and  _324
REMARK  132  A    between atoms: _327  and  _329
REMARK  133  A    between atoms: _329  and  _330
REMARK  134  A    between atoms: _329  and  _332
REMARK  135  A    between atoms: _332  and  _333
REMARK  136  A    between atoms: _336  and  _338
REMARK  137  A    between atoms: _338  and  _339
REMARK  138  A    between atoms: _338  and  _341
REMARK  139  A    between atoms: _344  and  _346
REMARK  140  A    between atoms: _346  and  _347
REMARK  141  A    between atoms: _346  and  _349
REMARK  142  A    between atoms: _349  and  _350
REMARK  143  A    between atoms: _350  and  _351
REMARK  144  A    between atoms: _351  and  _352
REMARK  145  A    between atoms: _352  and  _353
REMARK  146  A    between atoms: _357  and  _359
REMARK  147  A    between atoms: _359  and  _360
REMARK  148  A    between atoms: _359  and  _362
REMARK  149  A    between atoms: _362  and  _363
REMARK  150  A    between atoms: _363  and  _364
REMARK  151  A    between atoms: _366  and  _368
REMARK  152  A    between atoms: _368  and  _369
REMARK  153  A    between atoms: _368  and  _371
REMARK  154  A    between atoms: _371  and  _372
REMARK  155  A    between atoms: _375  and  _377
REMARK  156  A    between atoms: _377  and  _378
REMARK  157  A    between atoms: _380  and  _382
REMARK  158  A    between atoms: _382  and  _383
REMARK  159  A    between atoms: _385  and  _387
REMARK  160  A    between atoms: _387  and  _388
REMARK  161  A    between atoms: _387  and  _390
REMARK  162  A    between atoms: _390  and  _391
REMARK  163  A    between atoms: _394  and  _396
REMARK  164  A    between atoms: _396  and  _397
REMARK  165  A    between atoms: _399  and  _401
REMARK  166  A    between atoms: _401  and  _402
REMARK  167  A    between atoms: _404  and  _406
REMARK  168  A    between atoms: _406  and  _407
REMARK  169  A    between atoms: _406  and  _409
REMARK  170  A    between atoms: _409  and  _410
REMARK  171  A    between atoms: _416  and  _418
REMARK  172  A    between atoms: _418  and  _419
REMARK  173  A    between atoms: _418  and  _421
REMARK  174  A    between atoms: _421  and  _422
REMARK  175  A    between atoms: _425  and  _427
REMARK  176  A    between atoms: _427  and  _428
REMARK  177  A    between atoms: _427  and  _430
REMARK  178  A    between atoms: _430  and  _431
REMARK  179  A    between atoms: _435  and  _436
REMARK  180  A    between atoms: _441  and  _443
REMARK  181  A    between atoms: _443  and  _444
REMARK  182  A    between atoms: _443  and  _446
REMARK  183  A    between atoms: _446  and  _447
REMARK  184  A    between atoms: _451  and  _452
REMARK  185  A    between atoms: _457  and  _459
REMARK  186  A    between atoms: _459  and  _460
REMARK  187  A    between atoms: _459  and  _462
REMARK  188  A    between atoms: _465  and  _467
REMARK  189  A    between atoms: _467  and  _468
REMARK  190  A    between atoms: _467  and  _470
REMARK  191  A    between atoms: _470  and  _471
REMARK  192  A    between atoms: _476  and  _478
REMARK  193  A    between atoms: _478  and  _479
REMARK  194  A    between atoms: _478  and  _481
REMARK  195  A    between atoms: _481  and  _482
REMARK  196  A    between atoms: _485  and  _487
REMARK  197  A    between atoms: _487  and  _488
REMARK  198  A    between atoms: _487  and  _490
REMARK  199  A    between atoms: _490  and  _491
REMARK  200  A    between atoms: _494  and  _496
REMARK  201  A    between atoms: _496  and  _497
REMARK  202  A    between atoms: _499  and  _501
REMARK  203  A    between atoms: _501  and  _502
REMARK  204  A    between atoms: _501  and  _504
REMARK  205  A    between atoms: _504  and  _505
REMARK  206  A    between atoms: _505  and  _506
REMARK  207  A    between atoms: _506  and  _507
REMARK  208  A    between atoms: _516  and  _518
REMARK  209  A    between atoms: _518  and  _519
REMARK  210  A    between atoms: _518  and  _521
REMARK  211  A    between atoms: _521  and  _522
REMARK                            x       y       z     vdW  Elec       q    Type
REMARK                         _______ _______ _______ _____ _____    ______ ____
ROOT
ATOM      1  O   HOH     1      23.015  25.464   5.388  0.00  0.00    +0.000 OA
ENDROOT
TORSDOF 0
REMARK  Name = ../refined-set-2016/4djr/4djr_pocket.pdb
REMARK  211 active torsions:
REMARK  status: ('A' for Active; 'I' for Inactive)
REMARK    1  A    between atoms: _1  and  _3
REMARK    2  A    between atoms: _3  and  _4
REMARK    3  A    between atoms: _3  and  _6
REMARK    4  A    between atoms: _6  and  _7
REMARK    5  A    between atoms: _7  and  _8
REMARK    6  A    between atoms: _8  and  _9
REMARK    7  A    between atoms: _18  and  _20
REMARK    8  A    between atoms: _20  and  _21
REMARK    9  A    between atoms: _20  and  _23
REMARK   10  A    between atoms: _23  and  _24
REMARK   11  A    between atoms: _27  and  _29
REMARK   12  A    between atoms: _29  and  _30
REMARK   13  A    between atoms: _29  and  _32
REMARK   14  A    between atoms: _32  and  _33
REMARK   15  A    between atoms: _36  and  _38
REMARK   16  A    between atoms: _38  and  _39
REMARK   17  A    between atoms: _38  and  _41
REMARK   18  A    between atoms: _41  and  _42
REMARK   19  A    between atoms: _45  and  _47
REMARK   20  A    between atoms: _47  and  _48
REMARK   21  A    between atoms: _47  and  _50
REMARK   22  A    between atoms: _50  and  _51
REMARK   23  A    between atoms: _54  and  _56
REMARK   24  A    between atoms: _56  and  _57
REMARK   25  A    between atoms: _59  and  _61
REMARK   26  A    between atoms: _61  and  _62
REMARK   27  A    between atoms: _65  and  _67
REMARK   28  A    between atoms: _67  and  _68
REMARK   29  A    between atoms: _67  and  _70
REMARK   30  A    between atoms: _70  and  _71
REMARK   31  A    between atoms: _74  and  _76
REMARK   32  A    between atoms: _76  and  _77
REMARK   33  A    between atoms: _76  and  _79
REMARK   34  A    between atoms: _79  and  _80
REMARK   35  A    between atoms: _83  and  _85
REMARK   36  A    between atoms: _85  and  _86
REMARK   37  A    between atoms: _85  and  _88
REMARK   38  A    between atoms: _88  and  _89
REMARK   39  A    between atoms: _92  and  _94
REMARK   40  A    between atoms: _94  and  _95
REMARK   41  A    between atoms: _94  and  _97
REMARK   42  A    between atoms: _100  and  _102
REMARK   43  A    between atoms: _102  and  _103
REMARK   44  A    between atoms: _102  and  _105
REMARK   45  A    between atoms: _105  and  _106
REMARK   46  A    between atoms: _109  and  _111
REMARK   47  A    between atoms: _111  and  _112
REMARK   48  A    between atoms: _114  and  _116
REMARK   49  A    between atoms: _116  and  _117
REMARK   50  A    between atoms: _119  and  _121
REMARK   51  A    between atoms: _121  and  _122
REMARK   52  A    between atoms: _121  and  _124
REMARK   53  A    between atoms: _124  and  _125
REMARK   54  A    between atoms: _128  and  _130
REMARK   55  A    between atoms: _130  and  _131
REMARK   56  A    between atoms: _133  and  _135
REMARK   57  A    between atoms: _135  and  _136
REMARK   58  A    between atoms: _138  and  _140
REMARK   59  A    between atoms: _140  and  _141
REMARK   60  A    between atoms: _140  and  _143
REMARK   61  A    between atoms: _143  and  _144
REMARK   62  A    between atoms: _150  and  _152
REMARK   63  A    between atoms: _152  and  _153
REMARK   64  A    between atoms: _152  and  _155
REMARK   65  A    between atoms: _155  and  _156
REMARK   66  A    between atoms: _159  and  _161
REMARK   67  A    between atoms: _161  and  _162
REMARK   68  A    between atoms: _161  and  _164
REMARK   69  A    between atoms: _164  and  _165
REMARK   70  A    between atoms: _168  and  _170
REMARK   71  A    between atoms: _170  and  _171
REMARK   72  A    between atoms: _170  and  _173
REMARK   73  A    between atoms: _173  and  _174
REMARK   74  A    between atoms: _178  and  _179
REMARK   75  A    between atoms: _184  and  _186
REMARK   76  A    between atoms: _186  and  _187
REMARK   77  A    between atoms: _186  and  _189
REMARK   78  A    between atoms: _192  and  _194
REMARK   79  A    between atoms: _194  and  _195
REMARK   80  A    between atoms: _194  and  _197
REMARK   81  A    between atoms: _197  and  _198
REMARK   82  A    between atoms: _203  and  _205
REMARK   83  A    between atoms: _205  and  _206
REMARK   84  A    between atoms: _205  and  _208
REMARK   85  A    between atoms: _208  and  _209
REMARK   86  A    between atoms: _212  and  _214
REMARK   87  A    between atoms: _214  and  _215
REMARK   88  A    between atoms: _217  and  _219
REMARK   89  A    between atoms: _219  and  _220
REMARK   90  A    between atoms: _219  and  _222
REMARK   91  A    between atoms: _222  and  _223
REMARK   92  A    between atoms: _223  and  _224
REMARK   93  A    between atoms: _224  and  _225
REMARK   94  A    between atoms: _234  and  _236
REMARK   95  A    between atoms: _236  and  _237
REMARK   96  A    between atoms: _236  and  _239
REMARK   97  A    between atoms: _239  and  _240
REMARK   98  A    between atoms: _245  and  _247
REMARK   99  A    between atoms: _247  and  _248
REMARK  100  A    between atoms: _247  and  _250
REMARK  101  A    between atoms: _250  and  _251
REMARK  102  A    between atoms: _251  and  _252
REMARK  103  A    between atoms: _252  and  _253
REMARK  104  A    between atoms: _262  and  _264
REMARK  105  A    between atoms: _264  and  _265
REMARK  106  A    between atoms: _264  and  _267
REMARK  107  A    between atoms: _267  and  _268
REMARK  108  A    between atoms: _271  and  _273
REMARK  109  A    between atoms: _273  and  _274
REMARK  110  A    between atoms: _273  and  _276
REMARK  111  A    between atoms: _276  and  _277
REMARK  112  A    between atoms: _280  and  _282
REMARK  113  A    between atoms: _282  and  _283
REMARK  114  A    between atoms: _282  and  _285
REMARK  115  A    between atoms: _285  and  _286
REMARK  116  A    between atoms: _289  and  _291
REMARK  117  A    between atoms: _291  and  _292
REMARK  118  A    between atoms: _291  and  _294
REMARK  119  A    between atoms: _294  and  _295
REMARK  120  A    between atoms: _298  and  _300
REMARK  121  A    between atoms: _300  and  _301
REMARK  122  A    between atoms: _303  and  _305
REMARK  123  A    between atoms: _305  and  _306
REMARK  124  A    between atoms: _309  and  _311
REMARK  125  A    between atoms: _311  and  _312
REMARK  126  A    between atoms: _311  and  _314
REMARK  127  A    between atoms: _314  and  _315
REMARK  128  A    between atoms: _318  and  _320
REMARK  129  A    between atoms: _320  and  _321
REMARK  130  A    between atoms: _320  and  _323
REMARK  131  A    between atoms: _323  and  _324
REMARK  132  A    between atoms: _327  and  _329
REMARK  133  A    between atoms: _329  and  _330
REMARK  134  A    between atoms: _329  and  _332
REMARK  135  A    between atoms: _332  and  _333
REMARK  136  A    between atoms: _336  and  _338
REMARK  137  A    between atoms: _338  and  _339
REMARK  138  A    between atoms: _338  and  _341
REMARK  139  A    between atoms: _344  and  _346
REMARK  140  A    between atoms: _346  and  _347
REMARK  141  A    between atoms: _346  and  _349
REMARK  142  A    between atoms: _349  and  _350
REMARK  143  A    between atoms: _350  and  _351
REMARK  144  A    between atoms: _351  and  _352
REMARK  145  A    between atoms: _352  and  _353
REMARK  146  A    between atoms: _357  and  _359
REMARK  147  A    between atoms: _359  and  _360
REMARK  148  A    between atoms: _359  and  _362
REMARK  149  A    between atoms: _362  and  _363
REMARK  150  A    between atoms: _363  and  _364
REMARK  151  A    between atoms: _366  and  _368
REMARK  152  A    between atoms: _368  and  _369
REMARK  153  A    between atoms: _368  and  _371
REMARK  154  A    between atoms: _371  and  _372
REMARK  155  A    between atoms: _375  and  _377
REMARK  156  A    between atoms: _377  and  _378
REMARK  157  A    between atoms: _380  and  _382
REMARK  158  A    between atoms: _382  and  _383
REMARK  159  A    between atoms: _385  and  _387
REMARK  160  A    between atoms: _387  and  _388
REMARK  161  A    between atoms: _387  and  _390
REMARK  162  A    between atoms: _390  and  _391
REMARK  163  A    between atoms: _394  and  _396
REMARK  164  A    between atoms: _396  and  _397
REMARK  165  A    between atoms: _399  and  _401
REMARK  166  A    between atoms: _401  and  _402
REMARK  167  A    between atoms: _404  and  _406
REMARK  168  A    between atoms: _406  and  _407
REMARK  169  A    between atoms: _406  and  _409
REMARK  170  A    between atoms: _409  and  _410
REMARK  171  A    between atoms: _416  and  _418
REMARK  172  A    between atoms: _418  and  _419
REMARK  173  A    between atoms: _418  and  _421
REMARK  174  A    between atoms: _421  and  _422
REMARK  175  A    between atoms: _425  and  _427
REMARK  176  A    between atoms: _427  and  _428
REMARK  177  A    between atoms: _427  and  _430
REMARK  178  A    between atoms: _430  and  _431
REMARK  179  A    between atoms: _435  and  _436
REMARK  180  A    between atoms: _441  and  _443
REMARK  181  A    between atoms: _443  and  _444
REMARK  182  A    between atoms: _443  and  _446
REMARK  183  A    between atoms: _446  and  _447
REMARK  184  A    between atoms: _451  and  _452
REMARK  185  A    between atoms: _457  and  _459
REMARK  186  A    between atoms: _459  and  _460
REMARK  187  A    between atoms: _459  and  _462
REMARK  188  A    between atoms: _465  and  _467
REMARK  189  A    between atoms: _467  and  _468
REMARK  190  A    between atoms: _467  and  _470
REMARK  191  A    between atoms: _470  and  _471
REMARK  192  A    between atoms: _476  and  _478
REMARK  193  A    between atoms: _478  and  _479
REMARK  194  A    between atoms: _478  and  _481
REMARK  195  A    between atoms: _481  and  _482
REMARK  196  A    between atoms: _485  and  _487
REMARK  197  A    between atoms: _487  and  _488
REMARK  198  A    between atoms: _487  and  _490
REMARK  199  A    between atoms: _490  and  _491
REMARK  200  A    between atoms: _494  and  _496
REMARK  201  A    between atoms: _496  and  _497
REMARK  202  A    between atoms: _499  and  _501
REMARK  203  A    between atoms: _501  and  _502
REMARK  204  A    between atoms: _501  and  _504
REMARK  205  A    between atoms: _504  and  _505
REMARK  206  A    between atoms: _505  and  _506
REMARK  207  A    between atoms: _506  and  _507
REMARK  208  A    between atoms: _516  and  _518
REMARK  209  A    between atoms: _518  and  _519
REMARK  210  A    between atoms: _518  and  _521
REMARK  211  A    between atoms: _521  and  _522
REMARK                            x       y       z     vdW  Elec       q    Type
REMARK                         _______ _______ _______ _____ _____    ______ ____
ROOT
ATOM      1  O   HOH     1      23.345  15.681  12.630  0.00  0.00    +0.000 OA
ENDROOT
TORSDOF 0
REMARK  Name = ../refined-set-2016/4djr/4djr_pocket.pdb
REMARK  211 active torsions:
REMARK  status: ('A' for Active; 'I' for Inactive)
REMARK    1  A    between atoms: _1  and  _3
REMARK    2  A    between atoms: _3  and  _4
REMARK    3  A    between atoms: _3  and  _6
REMARK    4  A    between atoms: _6  and  _7
REMARK    5  A    between atoms: _7  and  _8
REMARK    6  A    between atoms: _8  and  _9
REMARK    7  A    between atoms: _18  and  _20
REMARK    8  A    between atoms: _20  and  _21
REMARK    9  A    between atoms: _20  and  _23
REMARK   10  A    between atoms: _23  and  _24
REMARK   11  A    between atoms: _27  and  _29
REMARK   12  A    between atoms: _29  and  _30
REMARK   13  A    between atoms: _29  and  _32
REMARK   14  A    between atoms: _32  and  _33
REMARK   15  A    between atoms: _36  and  _38
REMARK   16  A    between atoms: _38  and  _39
REMARK   17  A    between atoms: _38  and  _41
REMARK   18  A    between atoms: _41  and  _42
REMARK   19  A    between atoms: _45  and  _47
REMARK   20  A    between atoms: _47  and  _48
REMARK   21  A    between atoms: _47  and  _50
REMARK   22  A    between atoms: _50  and  _51
REMARK   23  A    between atoms: _54  and  _56
REMARK   24  A    between atoms: _56  and  _57
REMARK   25  A    between atoms: _59  and  _61
REMARK   26  A    between atoms: _61  and  _62
REMARK   27  A    between atoms: _65  and  _67
REMARK   28  A    between atoms: _67  and  _68
REMARK   29  A    between atoms: _67  and  _70
REMARK   30  A    between atoms: _70  and  _71
REMARK   31  A    between atoms: _74  and  _76
REMARK   32  A    between atoms: _76  and  _77
REMARK   33  A    between atoms: _76  and  _79
REMARK   34  A    between atoms: _79  and  _80
REMARK   35  A    between atoms: _83  and  _85
REMARK   36  A    between atoms: _85  and  _86
REMARK   37  A    between atoms: _85  and  _88
REMARK   38  A    between atoms: _88  and  _89
REMARK   39  A    between atoms: _92  and  _94
REMARK   40  A    between atoms: _94  and  _95
REMARK   41  A    between atoms: _94  and  _97
REMARK   42  A    between atoms: _100  and  _102
REMARK   43  A    between atoms: _102  and  _103
REMARK   44  A    between atoms: _102  and  _105
REMARK   45  A    between atoms: _105  and  _106
REMARK   46  A    between atoms: _109  and  _111
REMARK   47  A    between atoms: _111  and  _112
REMARK   48  A    between atoms: _114  and  _116
REMARK   49  A    between atoms: _116  and  _117
REMARK   50  A    between atoms: _119  and  _121
REMARK   51  A    between atoms: _121  and  _122
REMARK   52  A    between atoms: _121  and  _124
REMARK   53  A    between atoms: _124  and  _125
REMARK   54  A    between atoms: _128  and  _130
REMARK   55  A    between atoms: _130  and  _131
REMARK   56  A    between atoms: _133  and  _135
REMARK   57  A    between atoms: _135  and  _136
REMARK   58  A    between atoms: _138  and  _140
REMARK   59  A    between atoms: _140  and  _141
REMARK   60  A    between atoms: _140  and  _143
REMARK   61  A    between atoms: _143  and  _144
REMARK   62  A    between atoms: _150  and  _152
REMARK   63  A    between atoms: _152  and  _153
REMARK   64  A    between atoms: _152  and  _155
REMARK   65  A    between atoms: _155  and  _156
REMARK   66  A    between atoms: _159  and  _161
REMARK   67  A    between atoms: _161  and  _162
REMARK   68  A    between atoms: _161  and  _164
REMARK   69  A    between atoms: _164  and  _165
REMARK   70  A    between atoms: _168  and  _170
REMARK   71  A    between atoms: _170  and  _171
REMARK   72  A    between atoms: _170  and  _173
REMARK   73  A    between atoms: _173  and  _174
REMARK   74  A    between atoms: _178  and  _179
REMARK   75  A    between atoms: _184  and  _186
REMARK   76  A    between atoms: _186  and  _187
REMARK   77  A    between atoms: _186  and  _189
REMARK   78  A    between atoms: _192  and  _194
REMARK   79  A    between atoms: _194  and  _195
REMARK   80  A    between atoms: _194  and  _197
REMARK   81  A    between atoms: _197  and  _198
REMARK   82  A    between atoms: _203  and  _205
REMARK   83  A    between atoms: _205  and  _206
REMARK   84  A    between atoms: _205  and  _208
REMARK   85  A    between atoms: _208  and  _209
REMARK   86  A    between atoms: _212  and  _214
REMARK   87  A    between atoms: _214  and  _215
REMARK   88  A    between atoms: _217  and  _219
REMARK   89  A    between atoms: _219  and  _220
REMARK   90  A    between atoms: _219  and  _222
REMARK   91  A    between atoms: _222  and  _223
REMARK   92  A    between atoms: _223  and  _224
REMARK   93  A    between atoms: _224  and  _225
REMARK   94  A    between atoms: _234  and  _236
REMARK   95  A    between atoms: _236  and  _237
REMARK   96  A    between atoms: _236  and  _239
REMARK   97  A    between atoms: _239  and  _240
REMARK   98  A    between atoms: _245  and  _247
REMARK   99  A    between atoms: _247  and  _248
REMARK  100  A    between atoms: _247  and  _250
REMARK  101  A    between atoms: _250  and  _251
REMARK  102  A    between atoms: _251  and  _252
REMARK  103  A    between atoms: _252  and  _253
REMARK  104  A    between atoms: _262  and  _264
REMARK  105  A    between atoms: _264  and  _265
REMARK  106  A    between atoms: _264  and  _267
REMARK  107  A    between atoms: _267  and  _268
REMARK  108  A    between atoms: _271  and  _273
REMARK  109  A    between atoms: _273  and  _274
REMARK  110  A    between atoms: _273  and  _276
REMARK  111  A    between atoms: _276  and  _277
REMARK  112  A    between atoms: _280  and  _282
REMARK  113  A    between atoms: _282  and  _283
REMARK  114  A    between atoms: _282  and  _285
REMARK  115  A    between atoms: _285  and  _286
REMARK  116  A    between atoms: _289  and  _291
REMARK  117  A    between atoms: _291  and  _292
REMARK  118  A    between atoms: _291  and  _294
REMARK  119  A    between atoms: _294  and  _295
REMARK  120  A    between atoms: _298  and  _300
REMARK  121  A    between atoms: _300  and  _301
REMARK  122  A    between atoms: _303  and  _305
REMARK  123  A    between atoms: _305  and  _306
REMARK  124  A    between atoms: _309  and  _311
REMARK  125  A    between atoms: _311  and  _312
REMARK  126  A    between atoms: _311  and  _314
REMARK  127  A    between atoms: _314  and  _315
REMARK  128  A    between atoms: _318  and  _320
REMARK  129  A    between atoms: _320  and  _321
REMARK  130  A    between atoms: _320  and  _323
REMARK  131  A    between atoms: _323  and  _324
REMARK  132  A    between atoms: _327  and  _329
REMARK  133  A    between atoms: _329  and  _330
REMARK  134  A    between atoms: _329  and  _332
REMARK  135  A    between atoms: _332  and  _333
REMARK  136  A    between atoms: _336  and  _338
REMARK  137  A    between atoms: _338  and  _339
REMARK  138  A    between atoms: _338  and  _341
REMARK  139  A    between atoms: _344  and  _346
REMARK  140  A    between atoms: _346  and  _347
REMARK  141  A    between atoms: _346  and  _349
REMARK  142  A    between atoms: _349  and  _350
REMARK  143  A    between atoms: _350  and  _351
REMARK  144  A    between atoms: _351  and  _352
REMARK  145  A    between atoms: _352  and  _353
REMARK  146  A    between atoms: _357  and  _359
REMARK  147  A    between atoms: _359  and  _360
REMARK  148  A    between atoms: _359  and  _362
REMARK  149  A    between atoms: _362  and  _363
REMARK  150  A    between atoms: _363  and  _364
REMARK  151  A    between atoms: _366  and  _368
REMARK  152  A    between atoms: _368  and  _369
REMARK  153  A    between atoms: _368  and  _371
REMARK  154  A    between atoms: _371  and  _372
REMARK  155  A    between atoms: _375  and  _377
REMARK  156  A    between atoms: _377  and  _378
REMARK  157  A    between atoms: _380  and  _382
REMARK  158  A    between atoms: _382  and  _383
REMARK  159  A    between atoms: _385  and  _387
REMARK  160  A    between atoms: _387  and  _388
REMARK  161  A    between atoms: _387  and  _390
REMARK  162  A    between atoms: _390  and  _391
REMARK  163  A    between atoms: _394  and  _396
REMARK  164  A    between atoms: _396  and  _397
REMARK  165  A    between atoms: _399  and  _401
REMARK  166  A    between atoms: _401  and  _402
REMARK  167  A    between atoms: _404  and  _406
REMARK  168  A    between atoms: _406  and  _407
REMARK  169  A    between atoms: _406  and  _409
REMARK  170  A    between atoms: _409  and  _410
REMARK  171  A    between atoms: _416  and  _418
REMARK  172  A    between atoms: _418  and  _419
REMARK  173  A    between atoms: _418  and  _421
REMARK  174  A    between atoms: _421  and  _422
REMARK  175  A    between atoms: _425  and  _427
REMARK  176  A    between atoms: _427  and  _428
REMARK  177  A    between atoms: _427  and  _430
REMARK  178  A    between atoms: _430  and  _431
REMARK  179  A    between atoms: _435  and  _436
REMARK  180  A    between atoms: _441  and  _443
REMARK  181  A    between atoms: _443  and  _444
REMARK  182  A    between atoms: _443  and  _446
REMARK  183  A    between atoms: _446  and  _447
REMARK  184  A    between atoms: _451  and  _452
REMARK  185  A    between atoms: _457  and  _459
REMARK  186  A    between atoms: _459  and  _460
REMARK  187  A    between atoms: _459  and  _462
REMARK  188  A    between atoms: _465  and  _467
REMARK  189  A    between atoms: _467  and  _468
REMARK  190  A    between atoms: _467  and  _470
REMARK  191  A    between atoms: _470  and  _471
REMARK  192  A    between atoms: _476  and  _478
REMARK  193  A    between atoms: _478  and  _479
REMARK  194  A    between atoms: _478  and  _481
REMARK  195  A    between atoms: _481  and  _482
REMARK  196  A    between atoms: _485  and  _487
REMARK  197  A    between atoms: _487  and  _488
REMARK  198  A    between atoms: _487  and  _490
REMARK  199  A    between atoms: _490  and  _491
REMARK  200  A    between atoms: _494  and  _496
REMARK  201  A    between atoms: _496  and  _497
REMARK  202  A    between atoms: _499  and  _501
REMARK  203  A    between atoms: _501  and  _502
REMARK  204  A    between atoms: _501  and  _504
REMARK  205  A    between atoms: _504  and  _505
REMARK  206  A    between atoms: _505  and  _506
REMARK  207  A    between atoms: _506  and  _507
REMARK  208  A    between atoms: _516  and  _518
REMARK  209  A    between atoms: _518  and  _519
REMARK  210  A    between atoms: _518  and  _521
REMARK  211  A    between atoms: _521  and  _522
REMARK                            x       y       z     vdW  Elec       q    Type
REMARK                         _______ _______ _______ _____ _____    ______ ____
ROOT
ATOM      1  O   HOH     1      20.178  25.669   5.846  0.00  0.00    +0.000 OA
ENDROOT
TORSDOF 0
REMARK  Name = ../refined-set-2016/4djr/4djr_pocket.pdb
REMARK  211 active torsions:
REMARK  status: ('A' for Active; 'I' for Inactive)
REMARK    1  A    between atoms: _1  and  _3
REMARK    2  A    between atoms: _3  and  _4
REMARK    3  A    between atoms: _3  and  _6
REMARK    4  A    between atoms: _6  and  _7
REMARK    5  A    between atoms: _7  and  _8
REMARK    6  A    between atoms: _8  and  _9
REMARK    7  A    between atoms: _18  and  _20
REMARK    8  A    between atoms: _20  and  _21
REMARK    9  A    between atoms: _20  and  _23
REMARK   10  A    between atoms: _23  and  _24
REMARK   11  A    between atoms: _27  and  _29
REMARK   12  A    between atoms: _29  and  _30
REMARK   13  A    between atoms: _29  and  _32
REMARK   14  A    between atoms: _32  and  _33
REMARK   15  A    between atoms: _36  and  _38
REMARK   16  A    between atoms: _38  and  _39
REMARK   17  A    between atoms: _38  and  _41
REMARK   18  A    between atoms: _41  and  _42
REMARK   19  A    between atoms: _45  and  _47
REMARK   20  A    between atoms: _47  and  _48
REMARK   21  A    between atoms: _47  and  _50
REMARK   22  A    between atoms: _50  and  _51
REMARK   23  A    between atoms: _54  and  _56
REMARK   24  A    between atoms: _56  and  _57
REMARK   25  A    between atoms: _59  and  _61
REMARK   26  A    between atoms: _61  and  _62
REMARK   27  A    between atoms: _65  and  _67
REMARK   28  A    between atoms: _67  and  _68
REMARK   29  A    between atoms: _67  and  _70
REMARK   30  A    between atoms: _70  and  _71
REMARK   31  A    between atoms: _74  and  _76
REMARK   32  A    between atoms: _76  and  _77
REMARK   33  A    between atoms: _76  and  _79
REMARK   34  A    between atoms: _79  and  _80
REMARK   35  A    between atoms: _83  and  _85
REMARK   36  A    between atoms: _85  and  _86
REMARK   37  A    between atoms: _85  and  _88
REMARK   38  A    between atoms: _88  and  _89
REMARK   39  A    between atoms: _92  and  _94
REMARK   40  A    between atoms: _94  and  _95
REMARK   41  A    between atoms: _94  and  _97
REMARK   42  A    between atoms: _100  and  _102
REMARK   43  A    between atoms: _102  and  _103
REMARK   44  A    between atoms: _102  and  _105
REMARK   45  A    between atoms: _105  and  _106
REMARK   46  A    between atoms: _109  and  _111
REMARK   47  A    between atoms: _111  and  _112
REMARK   48  A    between atoms: _114  and  _116
REMARK   49  A    between atoms: _116  and  _117
REMARK   50  A    between atoms: _119  and  _121
REMARK   51  A    between atoms: _121  and  _122
REMARK   52  A    between atoms: _121  and  _124
REMARK   53  A    between atoms: _124  and  _125
REMARK   54  A    between atoms: _128  and  _130
REMARK   55  A    between atoms: _130  and  _131
REMARK   56  A    between atoms: _133  and  _135
REMARK   57  A    between atoms: _135  and  _136
REMARK   58  A    between atoms: _138  and  _140
REMARK   59  A    between atoms: _140  and  _141
REMARK   60  A    between atoms: _140  and  _143
REMARK   61  A    between atoms: _143  and  _144
REMARK   62  A    between atoms: _150  and  _152
REMARK   63  A    between atoms: _152  and  _153
REMARK   64  A    between atoms: _152  and  _155
REMARK   65  A    between atoms: _155  and  _156
REMARK   66  A    between atoms: _159  and  _161
REMARK   67  A    between atoms: _161  and  _162
REMARK   68  A    between atoms: _161  and  _164
REMARK   69  A    between atoms: _164  and  _165
REMARK   70  A    between atoms: _168  and  _170
REMARK   71  A    between atoms: _170  and  _171
REMARK   72  A    between atoms: _170  and  _173
REMARK   73  A    between atoms: _173  and  _174
REMARK   74  A    between atoms: _178  and  _179
REMARK   75  A    between atoms: _184  and  _186
REMARK   76  A    between atoms: _186  and  _187
REMARK   77  A    between atoms: _186  and  _189
REMARK   78  A    between atoms: _192  and  _194
REMARK   79  A    between atoms: _194  and  _195
REMARK   80  A    between atoms: _194  and  _197
REMARK   81  A    between atoms: _197  and  _198
REMARK   82  A    between atoms: _203  and  _205
REMARK   83  A    between atoms: _205  and  _206
REMARK   84  A    between atoms: _205  and  _208
REMARK   85  A    between atoms: _208  and  _209
REMARK   86  A    between atoms: _212  and  _214
REMARK   87  A    between atoms: _214  and  _215
REMARK   88  A    between atoms: _217  and  _219
REMARK   89  A    between atoms: _219  and  _220
REMARK   90  A    between atoms: _219  and  _222
REMARK   91  A    between atoms: _222  and  _223
REMARK   92  A    between atoms: _223  and  _224
REMARK   93  A    between atoms: _224  and  _225
REMARK   94  A    between atoms: _234  and  _236
REMARK   95  A    between atoms: _236  and  _237
REMARK   96  A    between atoms: _236  and  _239
REMARK   97  A    between atoms: _239  and  _240
REMARK   98  A    between atoms: _245  and  _247
REMARK   99  A    between atoms: _247  and  _248
REMARK  100  A    between atoms: _247  and  _250
REMARK  101  A    between atoms: _250  and  _251
REMARK  102  A    between atoms: _251  and  _252
REMARK  103  A    between atoms: _252  and  _253
REMARK  104  A    between atoms: _262  and  _264
REMARK  105  A    between atoms: _264  and  _265
REMARK  106  A    between atoms: _264  and  _267
REMARK  107  A    between atoms: _267  and  _268
REMARK  108  A    between atoms: _271  and  _273
REMARK  109  A    between atoms: _273  and  _274
REMARK  110  A    between atoms: _273  and  _276
REMARK  111  A    between atoms: _276  and  _277
REMARK  112  A    between atoms: _280  and  _282
REMARK  113  A    between atoms: _282  and  _283
REMARK  114  A    between atoms: _282  and  _285
REMARK  115  A    between atoms: _285  and  _286
REMARK  116  A    between atoms: _289  and  _291
REMARK  117  A    between atoms: _291  and  _292
REMARK  118  A    between atoms: _291  and  _294
REMARK  119  A    between atoms: _294  and  _295
REMARK  120  A    between atoms: _298  and  _300
REMARK  121  A    between atoms: _300  and  _301
REMARK  122  A    between atoms: _303  and  _305
REMARK  123  A    between atoms: _305  and  _306
REMARK  124  A    between atoms: _309  and  _311
REMARK  125  A    between atoms: _311  and  _312
REMARK  126  A    between atoms: _311  and  _314
REMARK  127  A    between atoms: _314  and  _315
REMARK  128  A    between atoms: _318  and  _320
REMARK  129  A    between atoms: _320  and  _321
REMARK  130  A    between atoms: _320  and  _323
REMARK  131  A    between atoms: _323  and  _324
REMARK  132  A    between atoms: _327  and  _329
REMARK  133  A    between atoms: _329  and  _330
REMARK  134  A    between atoms: _329  and  _332
REMARK  135  A    between atoms: _332  and  _333
REMARK  136  A    between atoms: _336  and  _338
REMARK  137  A    between atoms: _338  and  _339
REMARK  138  A    between atoms: _338  and  _341
REMARK  139  A    between atoms: _344  and  _346
REMARK  140  A    between atoms: _346  and  _347
REMARK  141  A    between atoms: _346  and  _349
REMARK  142  A    between atoms: _349  and  _350
REMARK  143  A    between atoms: _350  and  _351
REMARK  144  A    between atoms: _351  and  _352
REMARK  145  A    between atoms: _352  and  _353
REMARK  146  A    between atoms: _357  and  _359
REMARK  147  A    between atoms: _359  and  _360
REMARK  148  A    between atoms: _359  and  _362
REMARK  149  A    between atoms: _362  and  _363
REMARK  150  A    between atoms: _363  and  _364
REMARK  151  A    between atoms: _366  and  _368
REMARK  152  A    between atoms: _368  and  _369
REMARK  153  A    between atoms: _368  and  _371
REMARK  154  A    between atoms: _371  and  _372
REMARK  155  A    between atoms: _375  and  _377
REMARK  156  A    between atoms: _377  and  _378
REMARK  157  A    between atoms: _380  and  _382
REMARK  158  A    between atoms: _382  and  _383
REMARK  159  A    between atoms: _385  and  _387
REMARK  160  A    between atoms: _387  and  _388
REMARK  161  A    between atoms: _387  and  _390
REMARK  162  A    between atoms: _390  and  _391
REMARK  163  A    between atoms: _394  and  _396
REMARK  164  A    between atoms: _396  and  _397
REMARK  165  A    between atoms: _399  and  _401
REMARK  166  A    between atoms: _401  and  _402
REMARK  167  A    between atoms: _404  and  _406
REMARK  168  A    between atoms: _406  and  _407
REMARK  169  A    between atoms: _406  and  _409
REMARK  170  A    between atoms: _409  and  _410
REMARK  171  A    between atoms: _416  and  _418
REMARK  172  A    between atoms: _418  and  _419
REMARK  173  A    between atoms: _418  and  _421
REMARK  174  A    between atoms: _421  and  _422
REMARK  175  A    between atoms: _425  and  _427
REMARK  176  A    between atoms: _427  and  _428
REMARK  177  A    between atoms: _427  and  _430
REMARK  178  A    between atoms: _430  and  _431
REMARK  179  A    between atoms: _435  and  _436
REMARK  180  A    between atoms: _441  and  _443
REMARK  181  A    between atoms: _443  and  _444
REMARK  182  A    between atoms: _443  and  _446
REMARK  183  A    between atoms: _446  and  _447
REMARK  184  A    between atoms: _451  and  _452
REMARK  185  A    between atoms: _457  and  _459
REMARK  186  A    between atoms: _459  and  _460
REMARK  187  A    between atoms: _459  and  _462
REMARK  188  A    between atoms: _465  and  _467
REMARK  189  A    between atoms: _467  and  _468
REMARK  190  A    between atoms: _467  and  _470
REMARK  191  A    between atoms: _470  and  _471
REMARK  192  A    between atoms: _476  and  _478
REMARK  193  A    between atoms: _478  and  _479
REMARK  194  A    between atoms: _478  and  _481
REMARK  195  A    between atoms: _481  and  _482
REMARK  196  A    between atoms: _485  and  _487
REMARK  197  A    between atoms: _487  and  _488
REMARK  198  A    between atoms: _487  and  _490
REMARK  199  A    between atoms: _490  and  _491
REMARK  200  A    between atoms: _494  and  _496
REMARK  201  A    between atoms: _496  and  _497
REMARK  202  A    between atoms: _499  and  _501
REMARK  203  A    between atoms: _501  and  _502
REMARK  204  A    between atoms: _501  and  _504
REMARK  205  A    between atoms: _504  and  _505
REMARK  206  A    between atoms: _505  and  _506
REMARK  207  A    between atoms: _506  and  _507
REMARK  208  A    between atoms: _516  and  _518
REMARK  209  A    between atoms: _518  and  _519
REMARK  210  A    between atoms: _518  and  _521
REMARK  211  A    between atoms: _521  and  _522
REMARK                            x       y       z     vdW  Elec       q    Type
REMARK                         _______ _______ _______ _____ _____    ______ ____
ROOT
ATOM      1  O   HOH     1      22.655  35.945  20.523  0.00  0.00    +0.000 OA
ENDROOT
TORSDOF 0
REMARK  Name = ../refined-set-2016/4djr/4djr_pocket.pdb
REMARK  211 active torsions:
REMARK  status: ('A' for Active; 'I' for Inactive)
REMARK    1  A    between atoms: _1  and  _3
REMARK    2  A    between atoms: _3  and  _4
REMARK    3  A    between atoms: _3  and  _6
REMARK    4  A    between atoms: _6  and  _7
REMARK    5  A    between atoms: _7  and  _8
REMARK    6  A    between atoms: _8  and  _9
REMARK    7  A    between atoms: _18  and  _20
REMARK    8  A    between atoms: _20  and  _21
REMARK    9  A    between atoms: _20  and  _23
REMARK   10  A    between atoms: _23  and  _24
REMARK   11  A    between atoms: _27  and  _29
REMARK   12  A    between atoms: _29  and  _30
REMARK   13  A    between atoms: _29  and  _32
REMARK   14  A    between atoms: _32  and  _33
REMARK   15  A    between atoms: _36  and  _38
REMARK   16  A    between atoms: _38  and  _39
REMARK   17  A    between atoms: _38  and  _41
REMARK   18  A    between atoms: _41  and  _42
REMARK   19  A    between atoms: _45  and  _47
REMARK   20  A    between atoms: _47  and  _48
REMARK   21  A    between atoms: _47  and  _50
REMARK   22  A    between atoms: _50  and  _51
REMARK   23  A    between atoms: _54  and  _56
REMARK   24  A    between atoms: _56  and  _57
REMARK   25  A    between atoms: _59  and  _61
REMARK   26  A    between atoms: _61  and  _62
REMARK   27  A    between atoms: _65  and  _67
REMARK   28  A    between atoms: _67  and  _68
REMARK   29  A    between atoms: _67  and  _70
REMARK   30  A    between atoms: _70  and  _71
REMARK   31  A    between atoms: _74  and  _76
REMARK   32  A    between atoms: _76  and  _77
REMARK   33  A    between atoms: _76  and  _79
REMARK   34  A    between atoms: _79  and  _80
REMARK   35  A    between atoms: _83  and  _85
REMARK   36  A    between atoms: _85  and  _86
REMARK   37  A    between atoms: _85  and  _88
REMARK   38  A    between atoms: _88  and  _89
REMARK   39  A    between atoms: _92  and  _94
REMARK   40  A    between atoms: _94  and  _95
REMARK   41  A    between atoms: _94  and  _97
REMARK   42  A    between atoms: _100  and  _102
REMARK   43  A    between atoms: _102  and  _103
REMARK   44  A    between atoms: _102  and  _105
REMARK   45  A    between atoms: _105  and  _106
REMARK   46  A    between atoms: _109  and  _111
REMARK   47  A    between atoms: _111  and  _112
REMARK   48  A    between atoms: _114  and  _116
REMARK   49  A    between atoms: _116  and  _117
REMARK   50  A    between atoms: _119  and  _121
REMARK   51  A    between atoms: _121  and  _122
REMARK   52  A    between atoms: _121  and  _124
REMARK   53  A    between atoms: _124  and  _125
REMARK   54  A    between atoms: _128  and  _130
REMARK   55  A    between atoms: _130  and  _131
REMARK   56  A    between atoms: _133  and  _135
REMARK   57  A    between atoms: _135  and  _136
REMARK   58  A    between atoms: _138  and  _140
REMARK   59  A    between atoms: _140  and  _141
REMARK   60  A    between atoms: _140  and  _143
REMARK   61  A    between atoms: _143  and  _144
REMARK   62  A    between atoms: _150  and  _152
REMARK   63  A    between atoms: _152  and  _153
REMARK   64  A    between atoms: _152  and  _155
REMARK   65  A    between atoms: _155  and  _156
REMARK   66  A    between atoms: _159  and  _161
REMARK   67  A    between atoms: _161  and  _162
REMARK   68  A    between atoms: _161  and  _164
REMARK   69  A    between atoms: _164  and  _165
REMARK   70  A    between atoms: _168  and  _170
REMARK   71  A    between atoms: _170  and  _171
REMARK   72  A    between atoms: _170  and  _173
REMARK   73  A    between atoms: _173  and  _174
REMARK   74  A    between atoms: _178  and  _179
REMARK   75  A    between atoms: _184  and  _186
REMARK   76  A    between atoms: _186  and  _187
REMARK   77  A    between atoms: _186  and  _189
REMARK   78  A    between atoms: _192  and  _194
REMARK   79  A    between atoms: _194  and  _195
REMARK   80  A    between atoms: _194  and  _197
REMARK   81  A    between atoms: _197  and  _198
REMARK   82  A    between atoms: _203  and  _205
REMARK   83  A    between atoms: _205  and  _206
REMARK   84  A    between atoms: _205  and  _208
REMARK   85  A    between atoms: _208  and  _209
REMARK   86  A    between atoms: _212  and  _214
REMARK   87  A    between atoms: _214  and  _215
REMARK   88  A    between atoms: _217  and  _219
REMARK   89  A    between atoms: _219  and  _220
REMARK   90  A    between atoms: _219  and  _222
REMARK   91  A    between atoms: _222  and  _223
REMARK   92  A    between atoms: _223  and  _224
REMARK   93  A    between atoms: _224  and  _225
REMARK   94  A    between atoms: _234  and  _236
REMARK   95  A    between atoms: _236  and  _237
REMARK   96  A    between atoms: _236  and  _239
REMARK   97  A    between atoms: _239  and  _240
REMARK   98  A    between atoms: _245  and  _247
REMARK   99  A    between atoms: _247  and  _248
REMARK  100  A    between atoms: _247  and  _250
REMARK  101  A    between atoms: _250  and  _251
REMARK  102  A    between atoms: _251  and  _252
REMARK  103  A    between atoms: _252  and  _253
REMARK  104  A    between atoms: _262  and  _264
REMARK  105  A    between atoms: _264  and  _265
REMARK  106  A    between atoms: _264  and  _267
REMARK  107  A    between atoms: _267  and  _268
REMARK  108  A    between atoms: _271  and  _273
REMARK  109  A    between atoms: _273  and  _274
REMARK  110  A    between atoms: _273  and  _276
REMARK  111  A    between atoms: _276  and  _277
REMARK  112  A    between atoms: _280  and  _282
REMARK  113  A    between atoms: _282  and  _283
REMARK  114  A    between atoms: _282  and  _285
REMARK  115  A    between atoms: _285  and  _286
REMARK  116  A    between atoms: _289  and  _291
REMARK  117  A    between atoms: _291  and  _292
REMARK  118  A    between atoms: _291  and  _294
REMARK  119  A    between atoms: _294  and  _295
REMARK  120  A    between atoms: _298  and  _300
REMARK  121  A    between atoms: _300  and  _301
REMARK  122  A    between atoms: _303  and  _305
REMARK  123  A    between atoms: _305  and  _306
REMARK  124  A    between atoms: _309  and  _311
REMARK  125  A    between atoms: _311  and  _312
REMARK  126  A    between atoms: _311  and  _314
REMARK  127  A    between atoms: _314  and  _315
REMARK  128  A    between atoms: _318  and  _320
REMARK  129  A    between atoms: _320  and  _321
REMARK  130  A    between atoms: _320  and  _323
REMARK  131  A    between atoms: _323  and  _324
REMARK  132  A    between atoms: _327  and  _329
REMARK  133  A    between atoms: _329  and  _330
REMARK  134  A    between atoms: _329  and  _332
REMARK  135  A    between atoms: _332  and  _333
REMARK  136  A    between atoms: _336  and  _338
REMARK  137  A    between atoms: _338  and  _339
REMARK  138  A    between atoms: _338  and  _341
REMARK  139  A    between atoms: _344  and  _346
REMARK  140  A    between atoms: _346  and  _347
REMARK  141  A    between atoms: _346  and  _349
REMARK  142  A    between atoms: _349  and  _350
REMARK  143  A    between atoms: _350  and  _351
REMARK  144  A    between atoms: _351  and  _352
REMARK  145  A    between atoms: _352  and  _353
REMARK  146  A    between atoms: _357  and  _359
REMARK  147  A    between atoms: _359  and  _360
REMARK  148  A    between atoms: _359  and  _362
REMARK  149  A    between atoms: _362  and  _363
REMARK  150  A    between atoms: _363  and  _364
REMARK  151  A    between atoms: _366  and  _368
REMARK  152  A    between atoms: _368  and  _369
REMARK  153  A    between atoms: _368  and  _371
REMARK  154  A    between atoms: _371  and  _372
REMARK  155  A    between atoms: _375  and  _377
REMARK  156  A    between atoms: _377  and  _378
REMARK  157  A    between atoms: _380  and  _382
REMARK  158  A    between atoms: _382  and  _383
REMARK  159  A    between atoms: _385  and  _387
REMARK  160  A    between atoms: _387  and  _388
REMARK  161  A    between atoms: _387  and  _390
REMARK  162  A    between atoms: _390  and  _391
REMARK  163  A    between atoms: _394  and  _396
REMARK  164  A    between atoms: _396  and  _397
REMARK  165  A    between atoms: _399  and  _401
REMARK  166  A    between atoms: _401  and  _402
REMARK  167  A    between atoms: _404  and  _406
REMARK  168  A    between atoms: _406  and  _407
REMARK  169  A    between atoms: _406  and  _409
REMARK  170  A    between atoms: _409  and  _410
REMARK  171  A    between atoms: _416  and  _418
REMARK  172  A    between atoms: _418  and  _419
REMARK  173  A    between atoms: _418  and  _421
REMARK  174  A    between atoms: _421  and  _422
REMARK  175  A    between atoms: _425  and  _427
REMARK  176  A    between atoms: _427  and  _428
REMARK  177  A    between atoms: _427  and  _430
REMARK  178  A    between atoms: _430  and  _431
REMARK  179  A    between atoms: _435  and  _436
REMARK  180  A    between atoms: _441  and  _443
REMARK  181  A    between atoms: _443  and  _444
REMARK  182  A    between atoms: _443  and  _446
REMARK  183  A    between atoms: _446  and  _447
REMARK  184  A    between atoms: _451  and  _452
REMARK  185  A    between atoms: _457  and  _459
REMARK  186  A    between atoms: _459  and  _460
REMARK  187  A    between atoms: _459  and  _462
REMARK  188  A    between atoms: _465  and  _467
REMARK  189  A    between atoms: _467  and  _468
REMARK  190  A    between atoms: _467  and  _470
REMARK  191  A    between atoms: _470  and  _471
REMARK  192  A    between atoms: _476  and  _478
REMARK  193  A    between atoms: _478  and  _479
REMARK  194  A    between atoms: _478  and  _481
REMARK  195  A    between atoms: _481  and  _482
REMARK  196  A    between atoms: _485  and  _487
REMARK  197  A    between atoms: _487  and  _488
REMARK  198  A    between atoms: _487  and  _490
REMARK  199  A    between atoms: _490  and  _491
REMARK  200  A    between atoms: _494  and  _496
REMARK  201  A    between atoms: _496  and  _497
REMARK  202  A    between atoms: _499  and  _501
REMARK  203  A    between atoms: _501  and  _502
REMARK  204  A    between atoms: _501  and  _504
REMARK  205  A    between atoms: _504  and  _505
REMARK  206  A    between atoms: _505  and  _506
REMARK  207  A    between atoms: _506  and  _507
REMARK  208  A    between atoms: _516  and  _518
REMARK  209  A    between atoms: _518  and  _519
REMARK  210  A    between atoms: _518  and  _521
REMARK  211  A    between atoms: _521  and  _522
REMARK                            x       y       z     vdW  Elec       q    Type
REMARK                         _______ _______ _______ _____ _____    ______ ____
ROOT
ATOM      1  O   HOH     1      20.019  31.926  11.602  0.00  0.00    +0.000 OA
ENDROOT
TORSDOF 0
REMARK  Name = ../refined-set-2016/4djr/4djr_pocket.pdb
REMARK  211 active torsions:
REMARK  status: ('A' for Active; 'I' for Inactive)
REMARK    1  A    between atoms: _1  and  _3
REMARK    2  A    between atoms: _3  and  _4
REMARK    3  A    between atoms: _3  and  _6
REMARK    4  A    between atoms: _6  and  _7
REMARK    5  A    between atoms: _7  and  _8
REMARK    6  A    between atoms: _8  and  _9
REMARK    7  A    between atoms: _18  and  _20
REMARK    8  A    between atoms: _20  and  _21
REMARK    9  A    between atoms: _20  and  _23
REMARK   10  A    between atoms: _23  and  _24
REMARK   11  A    between atoms: _27  and  _29
REMARK   12  A    between atoms: _29  and  _30
REMARK   13  A    between atoms: _29  and  _32
REMARK   14  A    between atoms: _32  and  _33
REMARK   15  A    between atoms: _36  and  _38
REMARK   16  A    between atoms: _38  and  _39
REMARK   17  A    between atoms: _38  and  _41
REMARK   18  A    between atoms: _41  and  _42
REMARK   19  A    between atoms: _45  and  _47
REMARK   20  A    between atoms: _47  and  _48
REMARK   21  A    between atoms: _47  and  _50
REMARK   22  A    between atoms: _50  and  _51
REMARK   23  A    between atoms: _54  and  _56
REMARK   24  A    between atoms: _56  and  _57
REMARK   25  A    between atoms: _59  and  _61
REMARK   26  A    between atoms: _61  and  _62
REMARK   27  A    between atoms: _65  and  _67
REMARK   28  A    between atoms: _67  and  _68
REMARK   29  A    between atoms: _67  and  _70
REMARK   30  A    between atoms: _70  and  _71
REMARK   31  A    between atoms: _74  and  _76
REMARK   32  A    between atoms: _76  and  _77
REMARK   33  A    between atoms: _76  and  _79
REMARK   34  A    between atoms: _79  and  _80
REMARK   35  A    between atoms: _83  and  _85
REMARK   36  A    between atoms: _85  and  _86
REMARK   37  A    between atoms: _85  and  _88
REMARK   38  A    between atoms: _88  and  _89
REMARK   39  A    between atoms: _92  and  _94
REMARK   40  A    between atoms: _94  and  _95
REMARK   41  A    between atoms: _94  and  _97
REMARK   42  A    between atoms: _100  and  _102
REMARK   43  A    between atoms: _102  and  _103
REMARK   44  A    between atoms: _102  and  _105
REMARK   45  A    between atoms: _105  and  _106
REMARK   46  A    between atoms: _109  and  _111
REMARK   47  A    between atoms: _111  and  _112
REMARK   48  A    between atoms: _114  and  _116
REMARK   49  A    between atoms: _116  and  _117
REMARK   50  A    between atoms: _119  and  _121
REMARK   51  A    between atoms: _121  and  _122
REMARK   52  A    between atoms: _121  and  _124
REMARK   53  A    between atoms: _124  and  _125
REMARK   54  A    between atoms: _128  and  _130
REMARK   55  A    between atoms: _130  and  _131
REMARK   56  A    between atoms: _133  and  _135
REMARK   57  A    between atoms: _135  and  _136
REMARK   58  A    between atoms: _138  and  _140
REMARK   59  A    between atoms: _140  and  _141
REMARK   60  A    between atoms: _140  and  _143
REMARK   61  A    between atoms: _143  and  _144
REMARK   62  A    between atoms: _150  and  _152
REMARK   63  A    between atoms: _152  and  _153
REMARK   64  A    between atoms: _152  and  _155
REMARK   65  A    between atoms: _155  and  _156
REMARK   66  A    between atoms: _159  and  _161
REMARK   67  A    between atoms: _161  and  _162
REMARK   68  A    between atoms: _161  and  _164
REMARK   69  A    between atoms: _164  and  _165
REMARK   70  A    between atoms: _168  and  _170
REMARK   71  A    between atoms: _170  and  _171
REMARK   72  A    between atoms: _170  and  _173
REMARK   73  A    between atoms: _173  and  _174
REMARK   74  A    between atoms: _178  and  _179
REMARK   75  A    between atoms: _184  and  _186
REMARK   76  A    between atoms: _186  and  _187
REMARK   77  A    between atoms: _186  and  _189
REMARK   78  A    between atoms: _192  and  _194
REMARK   79  A    between atoms: _194  and  _195
REMARK   80  A    between atoms: _194  and  _197
REMARK   81  A    between atoms: _197  and  _198
REMARK   82  A    between atoms: _203  and  _205
REMARK   83  A    between atoms: _205  and  _206
REMARK   84  A    between atoms: _205  and  _208
REMARK   85  A    between atoms: _208  and  _209
REMARK   86  A    between atoms: _212  and  _214
REMARK   87  A    between atoms: _214  and  _215
REMARK   88  A    between atoms: _217  and  _219
REMARK   89  A    between atoms: _219  and  _220
REMARK   90  A    between atoms: _219  and  _222
REMARK   91  A    between atoms: _222  and  _223
REMARK   92  A    between atoms: _223  and  _224
REMARK   93  A    between atoms: _224  and  _225
REMARK   94  A    between atoms: _234  and  _236
REMARK   95  A    between atoms: _236  and  _237
REMARK   96  A    between atoms: _236  and  _239
REMARK   97  A    between atoms: _239  and  _240
REMARK   98  A    between atoms: _245  and  _247
REMARK   99  A    between atoms: _247  and  _248
REMARK  100  A    between atoms: _247  and  _250
REMARK  101  A    between atoms: _250  and  _251
REMARK  102  A    between atoms: _251  and  _252
REMARK  103  A    between atoms: _252  and  _253
REMARK  104  A    between atoms: _262  and  _264
REMARK  105  A    between atoms: _264  and  _265
REMARK  106  A    between atoms: _264  and  _267
REMARK  107  A    between atoms: _267  and  _268
REMARK  108  A    between atoms: _271  and  _273
REMARK  109  A    between atoms: _273  and  _274
REMARK  110  A    between atoms: _273  and  _276
REMARK  111  A    between atoms: _276  and  _277
REMARK  112  A    between atoms: _280  and  _282
REMARK  113  A    between atoms: _282  and  _283
REMARK  114  A    between atoms: _282  and  _285
REMARK  115  A    between atoms: _285  and  _286
REMARK  116  A    between atoms: _289  and  _291
REMARK  117  A    between atoms: _291  and  _292
REMARK  118  A    between atoms: _291  and  _294
REMARK  119  A    between atoms: _294  and  _295
REMARK  120  A    between atoms: _298  and  _300
REMARK  121  A    between atoms: _300  and  _301
REMARK  122  A    between atoms: _303  and  _305
REMARK  123  A    between atoms: _305  and  _306
REMARK  124  A    between atoms: _309  and  _311
REMARK  125  A    between atoms: _311  and  _312
REMARK  126  A    between atoms: _311  and  _314
REMARK  127  A    between atoms: _314  and  _315
REMARK  128  A    between atoms: _318  and  _320
REMARK  129  A    between atoms: _320  and  _321
REMARK  130  A    between atoms: _320  and  _323
REMARK  131  A    between atoms: _323  and  _324
REMARK  132  A    between atoms: _327  and  _329
REMARK  133  A    between atoms: _329  and  _330
REMARK  134  A    between atoms: _329  and  _332
REMARK  135  A    between atoms: _332  and  _333
REMARK  136  A    between atoms: _336  and  _338
REMARK  137  A    between atoms: _338  and  _339
REMARK  138  A    between atoms: _338  and  _341
REMARK  139  A    between atoms: _344  and  _346
REMARK  140  A    between atoms: _346  and  _347
REMARK  141  A    between atoms: _346  and  _349
REMARK  142  A    between atoms: _349  and  _350
REMARK  143  A    between atoms: _350  and  _351
REMARK  144  A    between atoms: _351  and  _352
REMARK  145  A    between atoms: _352  and  _353
REMARK  146  A    between atoms: _357  and  _359
REMARK  147  A    between atoms: _359  and  _360
REMARK  148  A    between atoms: _359  and  _362
REMARK  149  A    between atoms: _362  and  _363
REMARK  150  A    between atoms: _363  and  _364
REMARK  151  A    between atoms: _366  and  _368
REMARK  152  A    between atoms: _368  and  _369
REMARK  153  A    between atoms: _368  and  _371
REMARK  154  A    between atoms: _371  and  _372
REMARK  155  A    between atoms: _375  and  _377
REMARK  156  A    between atoms: _377  and  _378
REMARK  157  A    between atoms: _380  and  _382
REMARK  158  A    between atoms: _382  and  _383
REMARK  159  A    between atoms: _385  and  _387
REMARK  160  A    between atoms: _387  and  _388
REMARK  161  A    between atoms: _387  and  _390
REMARK  162  A    between atoms: _390  and  _391
REMARK  163  A    between atoms: _394  and  _396
REMARK  164  A    between atoms: _396  and  _397
REMARK  165  A    between atoms: _399  and  _401
REMARK  166  A    between atoms: _401  and  _402
REMARK  167  A    between atoms: _404  and  _406
REMARK  168  A    between atoms: _406  and  _407
REMARK  169  A    between atoms: _406  and  _409
REMARK  170  A    between atoms: _409  and  _410
REMARK  171  A    between atoms: _416  and  _418
REMARK  172  A    between atoms: _418  and  _419
REMARK  173  A    between atoms: _418  and  _421
REMARK  174  A    between atoms: _421  and  _422
REMARK  175  A    between atoms: _425  and  _427
REMARK  176  A    between atoms: _427  and  _428
REMARK  177  A    between atoms: _427  and  _430
REMARK  178  A    between atoms: _430  and  _431
REMARK  179  A    between atoms: _435  and  _436
REMARK  180  A    between atoms: _441  and  _443
REMARK  181  A    between atoms: _443  and  _444
REMARK  182  A    between atoms: _443  and  _446
REMARK  183  A    between atoms: _446  and  _447
REMARK  184  A    between atoms: _451  and  _452
REMARK  185  A    between atoms: _457  and  _459
REMARK  186  A    between atoms: _459  and  _460
REMARK  187  A    between atoms: _459  and  _462
REMARK  188  A    between atoms: _465  and  _467
REMARK  189  A    between atoms: _467  and  _468
REMARK  190  A    between atoms: _467  and  _470
REMARK  191  A    between atoms: _470  and  _471
REMARK  192  A    between atoms: _476  and  _478
REMARK  193  A    between atoms: _478  and  _479
REMARK  194  A    between atoms: _478  and  _481
REMARK  195  A    between atoms: _481  and  _482
REMARK  196  A    between atoms: _485  and  _487
REMARK  197  A    between atoms: _487  and  _488
REMARK  198  A    between atoms: _487  and  _490
REMARK  199  A    between atoms: _490  and  _491
REMARK  200  A    between atoms: _494  and  _496
REMARK  201  A    between atoms: _496  and  _497
REMARK  202  A    between atoms: _499  and  _501
REMARK  203  A    between atoms: _501  and  _502
REMARK  204  A    between atoms: _501  and  _504
REMARK  205  A    between atoms: _504  and  _505
REMARK  206  A    between atoms: _505  and  _506
REMARK  207  A    between atoms: _506  and  _507
REMARK  208  A    between atoms: _516  and  _518
REMARK  209  A    between atoms: _518  and  _519
REMARK  210  A    between atoms: _518  and  _521
REMARK  211  A    between atoms: _521  and  _522
REMARK                            x       y       z     vdW  Elec       q    Type
REMARK                         _______ _______ _______ _____ _____    ______ ____
ROOT
ATOM      1  O   HOH     1      21.825  41.546  21.144  0.00  0.00    +0.000 OA
ENDROOT
TORSDOF 0
REMARK  Name = ../refined-set-2016/4djr/4djr_pocket.pdb
REMARK  211 active torsions:
REMARK  status: ('A' for Active; 'I' for Inactive)
REMARK    1  A    between atoms: _1  and  _3
REMARK    2  A    between atoms: _3  and  _4
REMARK    3  A    between atoms: _3  and  _6
REMARK    4  A    between atoms: _6  and  _7
REMARK    5  A    between atoms: _7  and  _8
REMARK    6  A    between atoms: _8  and  _9
REMARK    7  A    between atoms: _18  and  _20
REMARK    8  A    between atoms: _20  and  _21
REMARK    9  A    between atoms: _20  and  _23
REMARK   10  A    between atoms: _23  and  _24
REMARK   11  A    between atoms: _27  and  _29
REMARK   12  A    between atoms: _29  and  _30
REMARK   13  A    between atoms: _29  and  _32
REMARK   14  A    between atoms: _32  and  _33
REMARK   15  A    between atoms: _36  and  _38
REMARK   16  A    between atoms: _38  and  _39
REMARK   17  A    between atoms: _38  and  _41
REMARK   18  A    between atoms: _41  and  _42
REMARK   19  A    between atoms: _45  and  _47
REMARK   20  A    between atoms: _47  and  _48
REMARK   21  A    between atoms: _47  and  _50
REMARK   22  A    between atoms: _50  and  _51
REMARK   23  A    between atoms: _54  and  _56
REMARK   24  A    between atoms: _56  and  _57
REMARK   25  A    between atoms: _59  and  _61
REMARK   26  A    between atoms: _61  and  _62
REMARK   27  A    between atoms: _65  and  _67
REMARK   28  A    between atoms: _67  and  _68
REMARK   29  A    between atoms: _67  and  _70
REMARK   30  A    between atoms: _70  and  _71
REMARK   31  A    between atoms: _74  and  _76
REMARK   32  A    between atoms: _76  and  _77
REMARK   33  A    between atoms: _76  and  _79
REMARK   34  A    between atoms: _79  and  _80
REMARK   35  A    between atoms: _83  and  _85
REMARK   36  A    between atoms: _85  and  _86
REMARK   37  A    between atoms: _85  and  _88
REMARK   38  A    between atoms: _88  and  _89
REMARK   39  A    between atoms: _92  and  _94
REMARK   40  A    between atoms: _94  and  _95
REMARK   41  A    between atoms: _94  and  _97
REMARK   42  A    between atoms: _100  and  _102
REMARK   43  A    between atoms: _102  and  _103
REMARK   44  A    between atoms: _102  and  _105
REMARK   45  A    between atoms: _105  and  _106
REMARK   46  A    between atoms: _109  and  _111
REMARK   47  A    between atoms: _111  and  _112
REMARK   48  A    between atoms: _114  and  _116
REMARK   49  A    between atoms: _116  and  _117
REMARK   50  A    between atoms: _119  and  _121
REMARK   51  A    between atoms: _121  and  _122
REMARK   52  A    between atoms: _121  and  _124
REMARK   53  A    between atoms: _124  and  _125
REMARK   54  A    between atoms: _128  and  _130
REMARK   55  A    between atoms: _130  and  _131
REMARK   56  A    between atoms: _133  and  _135
REMARK   57  A    between atoms: _135  and  _136
REMARK   58  A    between atoms: _138  and  _140
REMARK   59  A    between atoms: _140  and  _141
REMARK   60  A    between atoms: _140  and  _143
REMARK   61  A    between atoms: _143  and  _144
REMARK   62  A    between atoms: _150  and  _152
REMARK   63  A    between atoms: _152  and  _153
REMARK   64  A    between atoms: _152  and  _155
REMARK   65  A    between atoms: _155  and  _156
REMARK   66  A    between atoms: _159  and  _161
REMARK   67  A    between atoms: _161  and  _162
REMARK   68  A    between atoms: _161  and  _164
REMARK   69  A    between atoms: _164  and  _165
REMARK   70  A    between atoms: _168  and  _170
REMARK   71  A    between atoms: _170  and  _171
REMARK   72  A    between atoms: _170  and  _173
REMARK   73  A    between atoms: _173  and  _174
REMARK   74  A    between atoms: _178  and  _179
REMARK   75  A    between atoms: _184  and  _186
REMARK   76  A    between atoms: _186  and  _187
REMARK   77  A    between atoms: _186  and  _189
REMARK   78  A    between atoms: _192  and  _194
REMARK   79  A    between atoms: _194  and  _195
REMARK   80  A    between atoms: _194  and  _197
REMARK   81  A    between atoms: _197  and  _198
REMARK   82  A    between atoms: _203  and  _205
REMARK   83  A    between atoms: _205  and  _206
REMARK   84  A    between atoms: _205  and  _208
REMARK   85  A    between atoms: _208  and  _209
REMARK   86  A    between atoms: _212  and  _214
REMARK   87  A    between atoms: _214  and  _215
REMARK   88  A    between atoms: _217  and  _219
REMARK   89  A    between atoms: _219  and  _220
REMARK   90  A    between atoms: _219  and  _222
REMARK   91  A    between atoms: _222  and  _223
REMARK   92  A    between atoms: _223  and  _224
REMARK   93  A    between atoms: _224  and  _225
REMARK   94  A    between atoms: _234  and  _236
REMARK   95  A    between atoms: _236  and  _237
REMARK   96  A    between atoms: _236  and  _239
REMARK   97  A    between atoms: _239  and  _240
REMARK   98  A    between atoms: _245  and  _247
REMARK   99  A    between atoms: _247  and  _248
REMARK  100  A    between atoms: _247  and  _250
REMARK  101  A    between atoms: _250  and  _251
REMARK  102  A    between atoms: _251  and  _252
REMARK  103  A    between atoms: _252  and  _253
REMARK  104  A    between atoms: _262  and  _264
REMARK  105  A    between atoms: _264  and  _265
REMARK  106  A    between atoms: _264  and  _267
REMARK  107  A    between atoms: _267  and  _268
REMARK  108  A    between atoms: _271  and  _273
REMARK  109  A    between atoms: _273  and  _274
REMARK  110  A    between atoms: _273  and  _276
REMARK  111  A    between atoms: _276  and  _277
REMARK  112  A    between atoms: _280  and  _282
REMARK  113  A    between atoms: _282  and  _283
REMARK  114  A    between atoms: _282  and  _285
REMARK  115  A    between atoms: _285  and  _286
REMARK  116  A    between atoms: _289  and  _291
REMARK  117  A    between atoms: _291  and  _292
REMARK  118  A    between atoms: _291  and  _294
REMARK  119  A    between atoms: _294  and  _295
REMARK  120  A    between atoms: _298  and  _300
REMARK  121  A    between atoms: _300  and  _301
REMARK  122  A    between atoms: _303  and  _305
REMARK  123  A    between atoms: _305  and  _306
REMARK  124  A    between atoms: _309  and  _311
REMARK  125  A    between atoms: _311  and  _312
REMARK  126  A    between atoms: _311  and  _314
REMARK  127  A    between atoms: _314  and  _315
REMARK  128  A    between atoms: _318  and  _320
REMARK  129  A    between atoms: _320  and  _321
REMARK  130  A    between atoms: _320  and  _323
REMARK  131  A    between atoms: _323  and  _324
REMARK  132  A    between atoms: _327  and  _329
REMARK  133  A    between atoms: _329  and  _330
REMARK  134  A    between atoms: _329  and  _332
REMARK  135  A    between atoms: _332  and  _333
REMARK  136  A    between atoms: _336  and  _338
REMARK  137  A    between atoms: _338  and  _339
REMARK  138  A    between atoms: _338  and  _341
REMARK  139  A    between atoms: _344  and  _346
REMARK  140  A    between atoms: _346  and  _347
REMARK  141  A    between atoms: _346  and  _349
REMARK  142  A    between atoms: _349  and  _350
REMARK  143  A    between atoms: _350  and  _351
REMARK  144  A    between atoms: _351  and  _352
REMARK  145  A    between atoms: _352  and  _353
REMARK  146  A    between atoms: _357  and  _359
REMARK  147  A    between atoms: _359  and  _360
REMARK  148  A    between atoms: _359  and  _362
REMARK  149  A    between atoms: _362  and  _363
REMARK  150  A    between atoms: _363  and  _364
REMARK  151  A    between atoms: _366  and  _368
REMARK  152  A    between atoms: _368  and  _369
REMARK  153  A    between atoms: _368  and  _371
REMARK  154  A    between atoms: _371  and  _372
REMARK  155  A    between atoms: _375  and  _377
REMARK  156  A    between atoms: _377  and  _378
REMARK  157  A    between atoms: _380  and  _382
REMARK  158  A    between atoms: _382  and  _383
REMARK  159  A    between atoms: _385  and  _387
REMARK  160  A    between atoms: _387  and  _388
REMARK  161  A    between atoms: _387  and  _390
REMARK  162  A    between atoms: _390  and  _391
REMARK  163  A    between atoms: _394  and  _396
REMARK  164  A    between atoms: _396  and  _397
REMARK  165  A    between atoms: _399  and  _401
REMARK  166  A    between atoms: _401  and  _402
REMARK  167  A    between atoms: _404  and  _406
REMARK  168  A    between atoms: _406  and  _407
REMARK  169  A    between atoms: _406  and  _409
REMARK  170  A    between atoms: _409  and  _410
REMARK  171  A    between atoms: _416  and  _418
REMARK  172  A    between atoms: _418  and  _419
REMARK  173  A    between atoms: _418  and  _421
REMARK  174  A    between atoms: _421  and  _422
REMARK  175  A    between atoms: _425  and  _427
REMARK  176  A    between atoms: _427  and  _428
REMARK  177  A    between atoms: _427  and  _430
REMARK  178  A    between atoms: _430  and  _431
REMARK  179  A    between atoms: _435  and  _436
REMARK  180  A    between atoms: _441  and  _443
REMARK  181  A    between atoms: _443  and  _444
REMARK  182  A    between atoms: _443  and  _446
REMARK  183  A    between atoms: _446  and  _447
REMARK  184  A    between atoms: _451  and  _452
REMARK  185  A    between atoms: _457  and  _459
REMARK  186  A    between atoms: _459  and  _460
REMARK  187  A    between atoms: _459  and  _462
REMARK  188  A    between atoms: _465  and  _467
REMARK  189  A    between atoms: _467  and  _468
REMARK  190  A    between atoms: _467  and  _470
REMARK  191  A    between atoms: _470  and  _471
REMARK  192  A    between atoms: _476  and  _478
REMARK  193  A    between atoms: _478  and  _479
REMARK  194  A    between atoms: _478  and  _481
REMARK  195  A    between atoms: _481  and  _482
REMARK  196  A    between atoms: _485  and  _487
REMARK  197  A    between atoms: _487  and  _488
REMARK  198  A    between atoms: _487  and  _490
REMARK  199  A    between atoms: _490  and  _491
REMARK  200  A    between atoms: _494  and  _496
REMARK  201  A    between atoms: _496  and  _497
REMARK  202  A    between atoms: _499  and  _501
REMARK  203  A    between atoms: _501  and  _502
REMARK  204  A    between atoms: _501  and  _504
REMARK  205  A    between atoms: _504  and  _505
REMARK  206  A    between atoms: _505  and  _506
REMARK  207  A    between atoms: _506  and  _507
REMARK  208  A    between atoms: _516  and  _518
REMARK  209  A    between atoms: _518  and  _519
REMARK  210  A    between atoms: _518  and  _521
REMARK  211  A    between atoms: _521  and  _522
REMARK                            x       y       z     vdW  Elec       q    Type
REMARK                         _______ _______ _______ _____ _____    ______ ____
ROOT
ATOM      1  O   HOH     1      26.222  22.670   5.326  0.00  0.00    +0.000 OA
ENDROOT
TORSDOF 0
REMARK  Name = ../refined-set-2016/4djr/4djr_pocket.pdb
REMARK  211 active torsions:
REMARK  status: ('A' for Active; 'I' for Inactive)
REMARK    1  A    between atoms: _1  and  _3
REMARK    2  A    between atoms: _3  and  _4
REMARK    3  A    between atoms: _3  and  _6
REMARK    4  A    between atoms: _6  and  _7
REMARK    5  A    between atoms: _7  and  _8
REMARK    6  A    between atoms: _8  and  _9
REMARK    7  A    between atoms: _18  and  _20
REMARK    8  A    between atoms: _20  and  _21
REMARK    9  A    between atoms: _20  and  _23
REMARK   10  A    between atoms: _23  and  _24
REMARK   11  A    between atoms: _27  and  _29
REMARK   12  A    between atoms: _29  and  _30
REMARK   13  A    between atoms: _29  and  _32
REMARK   14  A    between atoms: _32  and  _33
REMARK   15  A    between atoms: _36  and  _38
REMARK   16  A    between atoms: _38  and  _39
REMARK   17  A    between atoms: _38  and  _41
REMARK   18  A    between atoms: _41  and  _42
REMARK   19  A    between atoms: _45  and  _47
REMARK   20  A    between atoms: _47  and  _48
REMARK   21  A    between atoms: _47  and  _50
REMARK   22  A    between atoms: _50  and  _51
REMARK   23  A    between atoms: _54  and  _56
REMARK   24  A    between atoms: _56  and  _57
REMARK   25  A    between atoms: _59  and  _61
REMARK   26  A    between atoms: _61  and  _62
REMARK   27  A    between atoms: _65  and  _67
REMARK   28  A    between atoms: _67  and  _68
REMARK   29  A    between atoms: _67  and  _70
REMARK   30  A    between atoms: _70  and  _71
REMARK   31  A    between atoms: _74  and  _76
REMARK   32  A    between atoms: _76  and  _77
REMARK   33  A    between atoms: _76  and  _79
REMARK   34  A    between atoms: _79  and  _80
REMARK   35  A    between atoms: _83  and  _85
REMARK   36  A    between atoms: _85  and  _86
REMARK   37  A    between atoms: _85  and  _88
REMARK   38  A    between atoms: _88  and  _89
REMARK   39  A    between atoms: _92  and  _94
REMARK   40  A    between atoms: _94  and  _95
REMARK   41  A    between atoms: _94  and  _97
REMARK   42  A    between atoms: _100  and  _102
REMARK   43  A    between atoms: _102  and  _103
REMARK   44  A    between atoms: _102  and  _105
REMARK   45  A    between atoms: _105  and  _106
REMARK   46  A    between atoms: _109  and  _111
REMARK   47  A    between atoms: _111  and  _112
REMARK   48  A    between atoms: _114  and  _116
REMARK   49  A    between atoms: _116  and  _117
REMARK   50  A    between atoms: _119  and  _121
REMARK   51  A    between atoms: _121  and  _122
REMARK   52  A    between atoms: _121  and  _124
REMARK   53  A    between atoms: _124  and  _125
REMARK   54  A    between atoms: _128  and  _130
REMARK   55  A    between atoms: _130  and  _131
REMARK   56  A    between atoms: _133  and  _135
REMARK   57  A    between atoms: _135  and  _136
REMARK   58  A    between atoms: _138  and  _140
REMARK   59  A    between atoms: _140  and  _141
REMARK   60  A    between atoms: _140  and  _143
REMARK   61  A    between atoms: _143  and  _144
REMARK   62  A    between atoms: _150  and  _152
REMARK   63  A    between atoms: _152  and  _153
REMARK   64  A    between atoms: _152  and  _155
REMARK   65  A    between atoms: _155  and  _156
REMARK   66  A    between atoms: _159  and  _161
REMARK   67  A    between atoms: _161  and  _162
REMARK   68  A    between atoms: _161  and  _164
REMARK   69  A    between atoms: _164  and  _165
REMARK   70  A    between atoms: _168  and  _170
REMARK   71  A    between atoms: _170  and  _171
REMARK   72  A    between atoms: _170  and  _173
REMARK   73  A    between atoms: _173  and  _174
REMARK   74  A    between atoms: _178  and  _179
REMARK   75  A    between atoms: _184  and  _186
REMARK   76  A    between atoms: _186  and  _187
REMARK   77  A    between atoms: _186  and  _189
REMARK   78  A    between atoms: _192  and  _194
REMARK   79  A    between atoms: _194  and  _195
REMARK   80  A    between atoms: _194  and  _197
REMARK   81  A    between atoms: _197  and  _198
REMARK   82  A    between atoms: _203  and  _205
REMARK   83  A    between atoms: _205  and  _206
REMARK   84  A    between atoms: _205  and  _208
REMARK   85  A    between atoms: _208  and  _209
REMARK   86  A    between atoms: _212  and  _214
REMARK   87  A    between atoms: _214  and  _215
REMARK   88  A    between atoms: _217  and  _219
REMARK   89  A    between atoms: _219  and  _220
REMARK   90  A    between atoms: _219  and  _222
REMARK   91  A    between atoms: _222  and  _223
REMARK   92  A    between atoms: _223  and  _224
REMARK   93  A    between atoms: _224  and  _225
REMARK   94  A    between atoms: _234  and  _236
REMARK   95  A    between atoms: _236  and  _237
REMARK   96  A    between atoms: _236  and  _239
REMARK   97  A    between atoms: _239  and  _240
REMARK   98  A    between atoms: _245  and  _247
REMARK   99  A    between atoms: _247  and  _248
REMARK  100  A    between atoms: _247  and  _250
REMARK  101  A    between atoms: _250  and  _251
REMARK  102  A    between atoms: _251  and  _252
REMARK  103  A    between atoms: _252  and  _253
REMARK  104  A    between atoms: _262  and  _264
REMARK  105  A    between atoms: _264  and  _265
REMARK  106  A    between atoms: _264  and  _267
REMARK  107  A    between atoms: _267  and  _268
REMARK  108  A    between atoms: _271  and  _273
REMARK  109  A    between atoms: _273  and  _274
REMARK  110  A    between atoms: _273  and  _276
REMARK  111  A    between atoms: _276  and  _277
REMARK  112  A    between atoms: _280  and  _282
REMARK  113  A    between atoms: _282  and  _283
REMARK  114  A    between atoms: _282  and  _285
REMARK  115  A    between atoms: _285  and  _286
REMARK  116  A    between atoms: _289  and  _291
REMARK  117  A    between atoms: _291  and  _292
REMARK  118  A    between atoms: _291  and  _294
REMARK  119  A    between atoms: _294  and  _295
REMARK  120  A    between atoms: _298  and  _300
REMARK  121  A    between atoms: _300  and  _301
REMARK  122  A    between atoms: _303  and  _305
REMARK  123  A    between atoms: _305  and  _306
REMARK  124  A    between atoms: _309  and  _311
REMARK  125  A    between atoms: _311  and  _312
REMARK  126  A    between atoms: _311  and  _314
REMARK  127  A    between atoms: _314  and  _315
REMARK  128  A    between atoms: _318  and  _320
REMARK  129  A    between atoms: _320  and  _321
REMARK  130  A    between atoms: _320  and  _323
REMARK  131  A    between atoms: _323  and  _324
REMARK  132  A    between atoms: _327  and  _329
REMARK  133  A    between atoms: _329  and  _330
REMARK  134  A    between atoms: _329  and  _332
REMARK  135  A    between atoms: _332  and  _333
REMARK  136  A    between atoms: _336  and  _338
REMARK  137  A    between atoms: _338  and  _339
REMARK  138  A    between atoms: _338  and  _341
REMARK  139  A    between atoms: _344  and  _346
REMARK  140  A    between atoms: _346  and  _347
REMARK  141  A    between atoms: _346  and  _349
REMARK  142  A    between atoms: _349  and  _350
REMARK  143  A    between atoms: _350  and  _351
REMARK  144  A    between atoms: _351  and  _352
REMARK  145  A    between atoms: _352  and  _353
REMARK  146  A    between atoms: _357  and  _359
REMARK  147  A    between atoms: _359  and  _360
REMARK  148  A    between atoms: _359  and  _362
REMARK  149  A    between atoms: _362  and  _363
REMARK  150  A    between atoms: _363  and  _364
REMARK  151  A    between atoms: _366  and  _368
REMARK  152  A    between atoms: _368  and  _369
REMARK  153  A    between atoms: _368  and  _371
REMARK  154  A    between atoms: _371  and  _372
REMARK  155  A    between atoms: _375  and  _377
REMARK  156  A    between atoms: _377  and  _378
REMARK  157  A    between atoms: _380  and  _382
REMARK  158  A    between atoms: _382  and  _383
REMARK  159  A    between atoms: _385  and  _387
REMARK  160  A    between atoms: _387  and  _388
REMARK  161  A    between atoms: _387  and  _390
REMARK  162  A    between atoms: _390  and  _391
REMARK  163  A    between atoms: _394  and  _396
REMARK  164  A    between atoms: _396  and  _397
REMARK  165  A    between atoms: _399  and  _401
REMARK  166  A    between atoms: _401  and  _402
REMARK  167  A    between atoms: _404  and  _406
REMARK  168  A    between atoms: _406  and  _407
REMARK  169  A    between atoms: _406  and  _409
REMARK  170  A    between atoms: _409  and  _410
REMARK  171  A    between atoms: _416  and  _418
REMARK  172  A    between atoms: _418  and  _419
REMARK  173  A    between atoms: _418  and  _421
REMARK  174  A    between atoms: _421  and  _422
REMARK  175  A    between atoms: _425  and  _427
REMARK  176  A    between atoms: _427  and  _428
REMARK  177  A    between atoms: _427  and  _430
REMARK  178  A    between atoms: _430  and  _431
REMARK  179  A    between atoms: _435  and  _436
REMARK  180  A    between atoms: _441  and  _443
REMARK  181  A    between atoms: _443  and  _444
REMARK  182  A    between atoms: _443  and  _446
REMARK  183  A    between atoms: _446  and  _447
REMARK  184  A    between atoms: _451  and  _452
REMARK  185  A    between atoms: _457  and  _459
REMARK  186  A    between atoms: _459  and  _460
REMARK  187  A    between atoms: _459  and  _462
REMARK  188  A    between atoms: _465  and  _467
REMARK  189  A    between atoms: _467  and  _468
REMARK  190  A    between atoms: _467  and  _470
REMARK  191  A    between atoms: _470  and  _471
REMARK  192  A    between atoms: _476  and  _478
REMARK  193  A    between atoms: _478  and  _479
REMARK  194  A    between atoms: _478  and  _481
REMARK  195  A    between atoms: _481  and  _482
REMARK  196  A    between atoms: _485  and  _487
REMARK  197  A    between atoms: _487  and  _488
REMARK  198  A    between atoms: _487  and  _490
REMARK  199  A    between atoms: _490  and  _491
REMARK  200  A    between atoms: _494  and  _496
REMARK  201  A    between atoms: _496  and  _497
REMARK  202  A    between atoms: _499  and  _501
REMARK  203  A    between atoms: _501  and  _502
REMARK  204  A    between atoms: _501  and  _504
REMARK  205  A    between atoms: _504  and  _505
REMARK  206  A    between atoms: _505  and  _506
REMARK  207  A    between atoms: _506  and  _507
REMARK  208  A    between atoms: _516  and  _518
REMARK  209  A    between atoms: _518  and  _519
REMARK  210  A    between atoms: _518  and  _521
REMARK  211  A    between atoms: _521  and  _522
REMARK                            x       y       z     vdW  Elec       q    Type
REMARK                         _______ _______ _______ _____ _____    ______ ____
ROOT
ATOM      1  O   HOH     1      24.381  24.075   7.154  0.00  0.00    +0.000 OA
ENDROOT
TORSDOF 0
REMARK  Name = ../refined-set-2016/4djr/4djr_pocket.pdb
REMARK  211 active torsions:
REMARK  status: ('A' for Active; 'I' for Inactive)
REMARK    1  A    between atoms: _1  and  _3
REMARK    2  A    between atoms: _3  and  _4
REMARK    3  A    between atoms: _3  and  _6
REMARK    4  A    between atoms: _6  and  _7
REMARK    5  A    between atoms: _7  and  _8
REMARK    6  A    between atoms: _8  and  _9
REMARK    7  A    between atoms: _18  and  _20
REMARK    8  A    between atoms: _20  and  _21
REMARK    9  A    between atoms: _20  and  _23
REMARK   10  A    between atoms: _23  and  _24
REMARK   11  A    between atoms: _27  and  _29
REMARK   12  A    between atoms: _29  and  _30
REMARK   13  A    between atoms: _29  and  _32
REMARK   14  A    between atoms: _32  and  _33
REMARK   15  A    between atoms: _36  and  _38
REMARK   16  A    between atoms: _38  and  _39
REMARK   17  A    between atoms: _38  and  _41
REMARK   18  A    between atoms: _41  and  _42
REMARK   19  A    between atoms: _45  and  _47
REMARK   20  A    between atoms: _47  and  _48
REMARK   21  A    between atoms: _47  and  _50
REMARK   22  A    between atoms: _50  and  _51
REMARK   23  A    between atoms: _54  and  _56
REMARK   24  A    between atoms: _56  and  _57
REMARK   25  A    between atoms: _59  and  _61
REMARK   26  A    between atoms: _61  and  _62
REMARK   27  A    between atoms: _65  and  _67
REMARK   28  A    between atoms: _67  and  _68
REMARK   29  A    between atoms: _67  and  _70
REMARK   30  A    between atoms: _70  and  _71
REMARK   31  A    between atoms: _74  and  _76
REMARK   32  A    between atoms: _76  and  _77
REMARK   33  A    between atoms: _76  and  _79
REMARK   34  A    between atoms: _79  and  _80
REMARK   35  A    between atoms: _83  and  _85
REMARK   36  A    between atoms: _85  and  _86
REMARK   37  A    between atoms: _85  and  _88
REMARK   38  A    between atoms: _88  and  _89
REMARK   39  A    between atoms: _92  and  _94
REMARK   40  A    between atoms: _94  and  _95
REMARK   41  A    between atoms: _94  and  _97
REMARK   42  A    between atoms: _100  and  _102
REMARK   43  A    between atoms: _102  and  _103
REMARK   44  A    between atoms: _102  and  _105
REMARK   45  A    between atoms: _105  and  _106
REMARK   46  A    between atoms: _109  and  _111
REMARK   47  A    between atoms: _111  and  _112
REMARK   48  A    between atoms: _114  and  _116
REMARK   49  A    between atoms: _116  and  _117
REMARK   50  A    between atoms: _119  and  _121
REMARK   51  A    between atoms: _121  and  _122
REMARK   52  A    between atoms: _121  and  _124
REMARK   53  A    between atoms: _124  and  _125
REMARK   54  A    between atoms: _128  and  _130
REMARK   55  A    between atoms: _130  and  _131
REMARK   56  A    between atoms: _133  and  _135
REMARK   57  A    between atoms: _135  and  _136
REMARK   58  A    between atoms: _138  and  _140
REMARK   59  A    between atoms: _140  and  _141
REMARK   60  A    between atoms: _140  and  _143
REMARK   61  A    between atoms: _143  and  _144
REMARK   62  A    between atoms: _150  and  _152
REMARK   63  A    between atoms: _152  and  _153
REMARK   64  A    between atoms: _152  and  _155
REMARK   65  A    between atoms: _155  and  _156
REMARK   66  A    between atoms: _159  and  _161
REMARK   67  A    between atoms: _161  and  _162
REMARK   68  A    between atoms: _161  and  _164
REMARK   69  A    between atoms: _164  and  _165
REMARK   70  A    between atoms: _168  and  _170
REMARK   71  A    between atoms: _170  and  _171
REMARK   72  A    between atoms: _170  and  _173
REMARK   73  A    between atoms: _173  and  _174
REMARK   74  A    between atoms: _178  and  _179
REMARK   75  A    between atoms: _184  and  _186
REMARK   76  A    between atoms: _186  and  _187
REMARK   77  A    between atoms: _186  and  _189
REMARK   78  A    between atoms: _192  and  _194
REMARK   79  A    between atoms: _194  and  _195
REMARK   80  A    between atoms: _194  and  _197
REMARK   81  A    between atoms: _197  and  _198
REMARK   82  A    between atoms: _203  and  _205
REMARK   83  A    between atoms: _205  and  _206
REMARK   84  A    between atoms: _205  and  _208
REMARK   85  A    between atoms: _208  and  _209
REMARK   86  A    between atoms: _212  and  _214
REMARK   87  A    between atoms: _214  and  _215
REMARK   88  A    between atoms: _217  and  _219
REMARK   89  A    between atoms: _219  and  _220
REMARK   90  A    between atoms: _219  and  _222
REMARK   91  A    between atoms: _222  and  _223
REMARK   92  A    between atoms: _223  and  _224
REMARK   93  A    between atoms: _224  and  _225
REMARK   94  A    between atoms: _234  and  _236
REMARK   95  A    between atoms: _236  and  _237
REMARK   96  A    between atoms: _236  and  _239
REMARK   97  A    between atoms: _239  and  _240
REMARK   98  A    between atoms: _245  and  _247
REMARK   99  A    between atoms: _247  and  _248
REMARK  100  A    between atoms: _247  and  _250
REMARK  101  A    between atoms: _250  and  _251
REMARK  102  A    between atoms: _251  and  _252
REMARK  103  A    between atoms: _252  and  _253
REMARK  104  A    between atoms: _262  and  _264
REMARK  105  A    between atoms: _264  and  _265
REMARK  106  A    between atoms: _264  and  _267
REMARK  107  A    between atoms: _267  and  _268
REMARK  108  A    between atoms: _271  and  _273
REMARK  109  A    between atoms: _273  and  _274
REMARK  110  A    between atoms: _273  and  _276
REMARK  111  A    between atoms: _276  and  _277
REMARK  112  A    between atoms: _280  and  _282
REMARK  113  A    between atoms: _282  and  _283
REMARK  114  A    between atoms: _282  and  _285
REMARK  115  A    between atoms: _285  and  _286
REMARK  116  A    between atoms: _289  and  _291
REMARK  117  A    between atoms: _291  and  _292
REMARK  118  A    between atoms: _291  and  _294
REMARK  119  A    between atoms: _294  and  _295
REMARK  120  A    between atoms: _298  and  _300
REMARK  121  A    between atoms: _300  and  _301
REMARK  122  A    between atoms: _303  and  _305
REMARK  123  A    between atoms: _305  and  _306
REMARK  124  A    between atoms: _309  and  _311
REMARK  125  A    between atoms: _311  and  _312
REMARK  126  A    between atoms: _311  and  _314
REMARK  127  A    between atoms: _314  and  _315
REMARK  128  A    between atoms: _318  and  _320
REMARK  129  A    between atoms: _320  and  _321
REMARK  130  A    between atoms: _320  and  _323
REMARK  131  A    between atoms: _323  and  _324
REMARK  132  A    between atoms: _327  and  _329
REMARK  133  A    between atoms: _329  and  _330
REMARK  134  A    between atoms: _329  and  _332
REMARK  135  A    between atoms: _332  and  _333
REMARK  136  A    between atoms: _336  and  _338
REMARK  137  A    between atoms: _338  and  _339
REMARK  138  A    between atoms: _338  and  _341
REMARK  139  A    between atoms: _344  and  _346
REMARK  140  A    between atoms: _346  and  _347
REMARK  141  A    between atoms: _346  and  _349
REMARK  142  A    between atoms: _349  and  _350
REMARK  143  A    between atoms: _350  and  _351
REMARK  144  A    between atoms: _351  and  _352
REMARK  145  A    between atoms: _352  and  _353
REMARK  146  A    between atoms: _357  and  _359
REMARK  147  A    between atoms: _359  and  _360
REMARK  148  A    between atoms: _359  and  _362
REMARK  149  A    between atoms: _362  and  _363
REMARK  150  A    between atoms: _363  and  _364
REMARK  151  A    between atoms: _366  and  _368
REMARK  152  A    between atoms: _368  and  _369
REMARK  153  A    between atoms: _368  and  _371
REMARK  154  A    between atoms: _371  and  _372
REMARK  155  A    between atoms: _375  and  _377
REMARK  156  A    between atoms: _377  and  _378
REMARK  157  A    between atoms: _380  and  _382
REMARK  158  A    between atoms: _382  and  _383
REMARK  159  A    between atoms: _385  and  _387
REMARK  160  A    between atoms: _387  and  _388
REMARK  161  A    between atoms: _387  and  _390
REMARK  162  A    between atoms: _390  and  _391
REMARK  163  A    between atoms: _394  and  _396
REMARK  164  A    between atoms: _396  and  _397
REMARK  165  A    between atoms: _399  and  _401
REMARK  166  A    between atoms: _401  and  _402
REMARK  167  A    between atoms: _404  and  _406
REMARK  168  A    between atoms: _406  and  _407
REMARK  169  A    between atoms: _406  and  _409
REMARK  170  A    between atoms: _409  and  _410
REMARK  171  A    between atoms: _416  and  _418
REMARK  172  A    between atoms: _418  and  _419
REMARK  173  A    between atoms: _418  and  _421
REMARK  174  A    between atoms: _421  and  _422
REMARK  175  A    between atoms: _425  and  _427
REMARK  176  A    between atoms: _427  and  _428
REMARK  177  A    between atoms: _427  and  _430
REMARK  178  A    between atoms: _430  and  _431
REMARK  179  A    between atoms: _435  and  _436
REMARK  180  A    between atoms: _441  and  _443
REMARK  181  A    between atoms: _443  and  _444
REMARK  182  A    between atoms: _443  and  _446
REMARK  183  A    between atoms: _446  and  _447
REMARK  184  A    between atoms: _451  and  _452
REMARK  185  A    between atoms: _457  and  _459
REMARK  186  A    between atoms: _459  and  _460
REMARK  187  A    between atoms: _459  and  _462
REMARK  188  A    between atoms: _465  and  _467
REMARK  189  A    between atoms: _467  and  _468
REMARK  190  A    between atoms: _467  and  _470
REMARK  191  A    between atoms: _470  and  _471
REMARK  192  A    between atoms: _476  and  _478
REMARK  193  A    between atoms: _478  and  _479
REMARK  194  A    between atoms: _478  and  _481
REMARK  195  A    between atoms: _481  and  _482
REMARK  196  A    between atoms: _485  and  _487
REMARK  197  A    between atoms: _487  and  _488
REMARK  198  A    between atoms: _487  and  _490
REMARK  199  A    between atoms: _490  and  _491
REMARK  200  A    between atoms: _494  and  _496
REMARK  201  A    between atoms: _496  and  _497
REMARK  202  A    between atoms: _499  and  _501
REMARK  203  A    between atoms: _501  and  _502
REMARK  204  A    between atoms: _501  and  _504
REMARK  205  A    between atoms: _504  and  _505
REMARK  206  A    between atoms: _505  and  _506
REMARK  207  A    between atoms: _506  and  _507
REMARK  208  A    between atoms: _516  and  _518
REMARK  209  A    between atoms: _518  and  _519
REMARK  210  A    between atoms: _518  and  _521
REMARK  211  A    between atoms: _521  and  _522
REMARK                            x       y       z     vdW  Elec       q    Type
REMARK                         _______ _______ _______ _____ _____    ______ ____
ROOT
ATOM      1  O   HOH     1      24.878  40.169  16.648  0.00  0.00    +0.000 OA
ENDROOT
TORSDOF 0
REMARK  Name = ../refined-set-2016/4djr/4djr_pocket.pdb
REMARK  211 active torsions:
REMARK  status: ('A' for Active; 'I' for Inactive)
REMARK    1  A    between atoms: _1  and  _3
REMARK    2  A    between atoms: _3  and  _4
REMARK    3  A    between atoms: _3  and  _6
REMARK    4  A    between atoms: _6  and  _7
REMARK    5  A    between atoms: _7  and  _8
REMARK    6  A    between atoms: _8  and  _9
REMARK    7  A    between atoms: _18  and  _20
REMARK    8  A    between atoms: _20  and  _21
REMARK    9  A    between atoms: _20  and  _23
REMARK   10  A    between atoms: _23  and  _24
REMARK   11  A    between atoms: _27  and  _29
REMARK   12  A    between atoms: _29  and  _30
REMARK   13  A    between atoms: _29  and  _32
REMARK   14  A    between atoms: _32  and  _33
REMARK   15  A    between atoms: _36  and  _38
REMARK   16  A    between atoms: _38  and  _39
REMARK   17  A    between atoms: _38  and  _41
REMARK   18  A    between atoms: _41  and  _42
REMARK   19  A    between atoms: _45  and  _47
REMARK   20  A    between atoms: _47  and  _48
REMARK   21  A    between atoms: _47  and  _50
REMARK   22  A    between atoms: _50  and  _51
REMARK   23  A    between atoms: _54  and  _56
REMARK   24  A    between atoms: _56  and  _57
REMARK   25  A    between atoms: _59  and  _61
REMARK   26  A    between atoms: _61  and  _62
REMARK   27  A    between atoms: _65  and  _67
REMARK   28  A    between atoms: _67  and  _68
REMARK   29  A    between atoms: _67  and  _70
REMARK   30  A    between atoms: _70  and  _71
REMARK   31  A    between atoms: _74  and  _76
REMARK   32  A    between atoms: _76  and  _77
REMARK   33  A    between atoms: _76  and  _79
REMARK   34  A    between atoms: _79  and  _80
REMARK   35  A    between atoms: _83  and  _85
REMARK   36  A    between atoms: _85  and  _86
REMARK   37  A    between atoms: _85  and  _88
REMARK   38  A    between atoms: _88  and  _89
REMARK   39  A    between atoms: _92  and  _94
REMARK   40  A    between atoms: _94  and  _95
REMARK   41  A    between atoms: _94  and  _97
REMARK   42  A    between atoms: _100  and  _102
REMARK   43  A    between atoms: _102  and  _103
REMARK   44  A    between atoms: _102  and  _105
REMARK   45  A    between atoms: _105  and  _106
REMARK   46  A    between atoms: _109  and  _111
REMARK   47  A    between atoms: _111  and  _112
REMARK   48  A    between atoms: _114  and  _116
REMARK   49  A    between atoms: _116  and  _117
REMARK   50  A    between atoms: _119  and  _121
REMARK   51  A    between atoms: _121  and  _122
REMARK   52  A    between atoms: _121  and  _124
REMARK   53  A    between atoms: _124  and  _125
REMARK   54  A    between atoms: _128  and  _130
REMARK   55  A    between atoms: _130  and  _131
REMARK   56  A    between atoms: _133  and  _135
REMARK   57  A    between atoms: _135  and  _136
REMARK   58  A    between atoms: _138  and  _140
REMARK   59  A    between atoms: _140  and  _141
REMARK   60  A    between atoms: _140  and  _143
REMARK   61  A    between atoms: _143  and  _144
REMARK   62  A    between atoms: _150  and  _152
REMARK   63  A    between atoms: _152  and  _153
REMARK   64  A    between atoms: _152  and  _155
REMARK   65  A    between atoms: _155  and  _156
REMARK   66  A    between atoms: _159  and  _161
REMARK   67  A    between atoms: _161  and  _162
REMARK   68  A    between atoms: _161  and  _164
REMARK   69  A    between atoms: _164  and  _165
REMARK   70  A    between atoms: _168  and  _170
REMARK   71  A    between atoms: _170  and  _171
REMARK   72  A    between atoms: _170  and  _173
REMARK   73  A    between atoms: _173  and  _174
REMARK   74  A    between atoms: _178  and  _179
REMARK   75  A    between atoms: _184  and  _186
REMARK   76  A    between atoms: _186  and  _187
REMARK   77  A    between atoms: _186  and  _189
REMARK   78  A    between atoms: _192  and  _194
REMARK   79  A    between atoms: _194  and  _195
REMARK   80  A    between atoms: _194  and  _197
REMARK   81  A    between atoms: _197  and  _198
REMARK   82  A    between atoms: _203  and  _205
REMARK   83  A    between atoms: _205  and  _206
REMARK   84  A    between atoms: _205  and  _208
REMARK   85  A    between atoms: _208  and  _209
REMARK   86  A    between atoms: _212  and  _214
REMARK   87  A    between atoms: _214  and  _215
REMARK   88  A    between atoms: _217  and  _219
REMARK   89  A    between atoms: _219  and  _220
REMARK   90  A    between atoms: _219  and  _222
REMARK   91  A    between atoms: _222  and  _223
REMARK   92  A    between atoms: _223  and  _224
REMARK   93  A    between atoms: _224  and  _225
REMARK   94  A    between atoms: _234  and  _236
REMARK   95  A    between atoms: _236  and  _237
REMARK   96  A    between atoms: _236  and  _239
REMARK   97  A    between atoms: _239  and  _240
REMARK   98  A    between atoms: _245  and  _247
REMARK   99  A    between atoms: _247  and  _248
REMARK  100  A    between atoms: _247  and  _250
REMARK  101  A    between atoms: _250  and  _251
REMARK  102  A    between atoms: _251  and  _252
REMARK  103  A    between atoms: _252  and  _253
REMARK  104  A    between atoms: _262  and  _264
REMARK  105  A    between atoms: _264  and  _265
REMARK  106  A    between atoms: _264  and  _267
REMARK  107  A    between atoms: _267  and  _268
REMARK  108  A    between atoms: _271  and  _273
REMARK  109  A    between atoms: _273  and  _274
REMARK  110  A    between atoms: _273  and  _276
REMARK  111  A    between atoms: _276  and  _277
REMARK  112  A    between atoms: _280  and  _282
REMARK  113  A    between atoms: _282  and  _283
REMARK  114  A    between atoms: _282  and  _285
REMARK  115  A    between atoms: _285  and  _286
REMARK  116  A    between atoms: _289  and  _291
REMARK  117  A    between atoms: _291  and  _292
REMARK  118  A    between atoms: _291  and  _294
REMARK  119  A    between atoms: _294  and  _295
REMARK  120  A    between atoms: _298  and  _300
REMARK  121  A    between atoms: _300  and  _301
REMARK  122  A    between atoms: _303  and  _305
REMARK  123  A    between atoms: _305  and  _306
REMARK  124  A    between atoms: _309  and  _311
REMARK  125  A    between atoms: _311  and  _312
REMARK  126  A    between atoms: _311  and  _314
REMARK  127  A    between atoms: _314  and  _315
REMARK  128  A    between atoms: _318  and  _320
REMARK  129  A    between atoms: _320  and  _321
REMARK  130  A    between atoms: _320  and  _323
REMARK  131  A    between atoms: _323  and  _324
REMARK  132  A    between atoms: _327  and  _329
REMARK  133  A    between atoms: _329  and  _330
REMARK  134  A    between atoms: _329  and  _332
REMARK  135  A    between atoms: _332  and  _333
REMARK  136  A    between atoms: _336  and  _338
REMARK  137  A    between atoms: _338  and  _339
REMARK  138  A    between atoms: _338  and  _341
REMARK  139  A    between atoms: _344  and  _346
REMARK  140  A    between atoms: _346  and  _347
REMARK  141  A    between atoms: _346  and  _349
REMARK  142  A    between atoms: _349  and  _350
REMARK  143  A    between atoms: _350  and  _351
REMARK  144  A    between atoms: _351  and  _352
REMARK  145  A    between atoms: _352  and  _353
REMARK  146  A    between atoms: _357  and  _359
REMARK  147  A    between atoms: _359  and  _360
REMARK  148  A    between atoms: _359  and  _362
REMARK  149  A    between atoms: _362  and  _363
REMARK  150  A    between atoms: _363  and  _364
REMARK  151  A    between atoms: _366  and  _368
REMARK  152  A    between atoms: _368  and  _369
REMARK  153  A    between atoms: _368  and  _371
REMARK  154  A    between atoms: _371  and  _372
REMARK  155  A    between atoms: _375  and  _377
REMARK  156  A    between atoms: _377  and  _378
REMARK  157  A    between atoms: _380  and  _382
REMARK  158  A    between atoms: _382  and  _383
REMARK  159  A    between atoms: _385  and  _387
REMARK  160  A    between atoms: _387  and  _388
REMARK  161  A    between atoms: _387  and  _390
REMARK  162  A    between atoms: _390  and  _391
REMARK  163  A    between atoms: _394  and  _396
REMARK  164  A    between atoms: _396  and  _397
REMARK  165  A    between atoms: _399  and  _401
REMARK  166  A    between atoms: _401  and  _402
REMARK  167  A    between atoms: _404  and  _406
REMARK  168  A    between atoms: _406  and  _407
REMARK  169  A    between atoms: _406  and  _409
REMARK  170  A    between atoms: _409  and  _410
REMARK  171  A    between atoms: _416  and  _418
REMARK  172  A    between atoms: _418  and  _419
REMARK  173  A    between atoms: _418  and  _421
REMARK  174  A    between atoms: _421  and  _422
REMARK  175  A    between atoms: _425  and  _427
REMARK  176  A    between atoms: _427  and  _428
REMARK  177  A    between atoms: _427  and  _430
REMARK  178  A    between atoms: _430  and  _431
REMARK  179  A    between atoms: _435  and  _436
REMARK  180  A    between atoms: _441  and  _443
REMARK  181  A    between atoms: _443  and  _444
REMARK  182  A    between atoms: _443  and  _446
REMARK  183  A    between atoms: _446  and  _447
REMARK  184  A    between atoms: _451  and  _452
REMARK  185  A    between atoms: _457  and  _459
REMARK  186  A    between atoms: _459  and  _460
REMARK  187  A    between atoms: _459  and  _462
REMARK  188  A    between atoms: _465  and  _467
REMARK  189  A    between atoms: _467  and  _468
REMARK  190  A    between atoms: _467  and  _470
REMARK  191  A    between atoms: _470  and  _471
REMARK  192  A    between atoms: _476  and  _478
REMARK  193  A    between atoms: _478  and  _479
REMARK  194  A    between atoms: _478  and  _481
REMARK  195  A    between atoms: _481  and  _482
REMARK  196  A    between atoms: _485  and  _487
REMARK  197  A    between atoms: _487  and  _488
REMARK  198  A    between atoms: _487  and  _490
REMARK  199  A    between atoms: _490  and  _491
REMARK  200  A    between atoms: _494  and  _496
REMARK  201  A    between atoms: _496  and  _497
REMARK  202  A    between atoms: _499  and  _501
REMARK  203  A    between atoms: _501  and  _502
REMARK  204  A    between atoms: _501  and  _504
REMARK  205  A    between atoms: _504  and  _505
REMARK  206  A    between atoms: _505  and  _506
REMARK  207  A    between atoms: _506  and  _507
REMARK  208  A    between atoms: _516  and  _518
REMARK  209  A    between atoms: _518  and  _519
REMARK  210  A    between atoms: _518  and  _521
REMARK  211  A    between atoms: _521  and  _522
REMARK                            x       y       z     vdW  Elec       q    Type
REMARK                         _______ _______ _______ _____ _____    ______ ____
ROOT
ATOM      1  O   HOH     1      20.185  32.345  23.324  0.00  0.00    +0.000 OA
ENDROOT
TORSDOF 0
REMARK  Name = ../refined-set-2016/4djr/4djr_pocket.pdb
REMARK  211 active torsions:
REMARK  status: ('A' for Active; 'I' for Inactive)
REMARK    1  A    between atoms: _1  and  _3
REMARK    2  A    between atoms: _3  and  _4
REMARK    3  A    between atoms: _3  and  _6
REMARK    4  A    between atoms: _6  and  _7
REMARK    5  A    between atoms: _7  and  _8
REMARK    6  A    between atoms: _8  and  _9
REMARK    7  A    between atoms: _18  and  _20
REMARK    8  A    between atoms: _20  and  _21
REMARK    9  A    between atoms: _20  and  _23
REMARK   10  A    between atoms: _23  and  _24
REMARK   11  A    between atoms: _27  and  _29
REMARK   12  A    between atoms: _29  and  _30
REMARK   13  A    between atoms: _29  and  _32
REMARK   14  A    between atoms: _32  and  _33
REMARK   15  A    between atoms: _36  and  _38
REMARK   16  A    between atoms: _38  and  _39
REMARK   17  A    between atoms: _38  and  _41
REMARK   18  A    between atoms: _41  and  _42
REMARK   19  A    between atoms: _45  and  _47
REMARK   20  A    between atoms: _47  and  _48
REMARK   21  A    between atoms: _47  and  _50
REMARK   22  A    between atoms: _50  and  _51
REMARK   23  A    between atoms: _54  and  _56
REMARK   24  A    between atoms: _56  and  _57
REMARK   25  A    between atoms: _59  and  _61
REMARK   26  A    between atoms: _61  and  _62
REMARK   27  A    between atoms: _65  and  _67
REMARK   28  A    between atoms: _67  and  _68
REMARK   29  A    between atoms: _67  and  _70
REMARK   30  A    between atoms: _70  and  _71
REMARK   31  A    between atoms: _74  and  _76
REMARK   32  A    between atoms: _76  and  _77
REMARK   33  A    between atoms: _76  and  _79
REMARK   34  A    between atoms: _79  and  _80
REMARK   35  A    between atoms: _83  and  _85
REMARK   36  A    between atoms: _85  and  _86
REMARK   37  A    between atoms: _85  and  _88
REMARK   38  A    between atoms: _88  and  _89
REMARK   39  A    between atoms: _92  and  _94
REMARK   40  A    between atoms: _94  and  _95
REMARK   41  A    between atoms: _94  and  _97
REMARK   42  A    between atoms: _100  and  _102
REMARK   43  A    between atoms: _102  and  _103
REMARK   44  A    between atoms: _102  and  _105
REMARK   45  A    between atoms: _105  and  _106
REMARK   46  A    between atoms: _109  and  _111
REMARK   47  A    between atoms: _111  and  _112
REMARK   48  A    between atoms: _114  and  _116
REMARK   49  A    between atoms: _116  and  _117
REMARK   50  A    between atoms: _119  and  _121
REMARK   51  A    between atoms: _121  and  _122
REMARK   52  A    between atoms: _121  and  _124
REMARK   53  A    between atoms: _124  and  _125
REMARK   54  A    between atoms: _128  and  _130
REMARK   55  A    between atoms: _130  and  _131
REMARK   56  A    between atoms: _133  and  _135
REMARK   57  A    between atoms: _135  and  _136
REMARK   58  A    between atoms: _138  and  _140
REMARK   59  A    between atoms: _140  and  _141
REMARK   60  A    between atoms: _140  and  _143
REMARK   61  A    between atoms: _143  and  _144
REMARK   62  A    between atoms: _150  and  _152
REMARK   63  A    between atoms: _152  and  _153
REMARK   64  A    between atoms: _152  and  _155
REMARK   65  A    between atoms: _155  and  _156
REMARK   66  A    between atoms: _159  and  _161
REMARK   67  A    between atoms: _161  and  _162
REMARK   68  A    between atoms: _161  and  _164
REMARK   69  A    between atoms: _164  and  _165
REMARK   70  A    between atoms: _168  and  _170
REMARK   71  A    between atoms: _170  and  _171
REMARK   72  A    between atoms: _170  and  _173
REMARK   73  A    between atoms: _173  and  _174
REMARK   74  A    between atoms: _178  and  _179
REMARK   75  A    between atoms: _184  and  _186
REMARK   76  A    between atoms: _186  and  _187
REMARK   77  A    between atoms: _186  and  _189
REMARK   78  A    between atoms: _192  and  _194
REMARK   79  A    between atoms: _194  and  _195
REMARK   80  A    between atoms: _194  and  _197
REMARK   81  A    between atoms: _197  and  _198
REMARK   82  A    between atoms: _203  and  _205
REMARK   83  A    between atoms: _205  and  _206
REMARK   84  A    between atoms: _205  and  _208
REMARK   85  A    between atoms: _208  and  _209
REMARK   86  A    between atoms: _212  and  _214
REMARK   87  A    between atoms: _214  and  _215
REMARK   88  A    between atoms: _217  and  _219
REMARK   89  A    between atoms: _219  and  _220
REMARK   90  A    between atoms: _219  and  _222
REMARK   91  A    between atoms: _222  and  _223
REMARK   92  A    between atoms: _223  and  _224
REMARK   93  A    between atoms: _224  and  _225
REMARK   94  A    between atoms: _234  and  _236
REMARK   95  A    between atoms: _236  and  _237
REMARK   96  A    between atoms: _236  and  _239
REMARK   97  A    between atoms: _239  and  _240
REMARK   98  A    between atoms: _245  and  _247
REMARK   99  A    between atoms: _247  and  _248
REMARK  100  A    between atoms: _247  and  _250
REMARK  101  A    between atoms: _250  and  _251
REMARK  102  A    between atoms: _251  and  _252
REMARK  103  A    between atoms: _252  and  _253
REMARK  104  A    between atoms: _262  and  _264
REMARK  105  A    between atoms: _264  and  _265
REMARK  106  A    between atoms: _264  and  _267
REMARK  107  A    between atoms: _267  and  _268
REMARK  108  A    between atoms: _271  and  _273
REMARK  109  A    between atoms: _273  and  _274
REMARK  110  A    between atoms: _273  and  _276
REMARK  111  A    between atoms: _276  and  _277
REMARK  112  A    between atoms: _280  and  _282
REMARK  113  A    between atoms: _282  and  _283
REMARK  114  A    between atoms: _282  and  _285
REMARK  115  A    between atoms: _285  and  _286
REMARK  116  A    between atoms: _289  and  _291
REMARK  117  A    between atoms: _291  and  _292
REMARK  118  A    between atoms: _291  and  _294
REMARK  119  A    between atoms: _294  and  _295
REMARK  120  A    between atoms: _298  and  _300
REMARK  121  A    between atoms: _300  and  _301
REMARK  122  A    between atoms: _303  and  _305
REMARK  123  A    between atoms: _305  and  _306
REMARK  124  A    between atoms: _309  and  _311
REMARK  125  A    between atoms: _311  and  _312
REMARK  126  A    between atoms: _311  and  _314
REMARK  127  A    between atoms: _314  and  _315
REMARK  128  A    between atoms: _318  and  _320
REMARK  129  A    between atoms: _320  and  _321
REMARK  130  A    between atoms: _320  and  _323
REMARK  131  A    between atoms: _323  and  _324
REMARK  132  A    between atoms: _327  and  _329
REMARK  133  A    between atoms: _329  and  _330
REMARK  134  A    between atoms: _329  and  _332
REMARK  135  A    between atoms: _332  and  _333
REMARK  136  A    between atoms: _336  and  _338
REMARK  137  A    between atoms: _338  and  _339
REMARK  138  A    between atoms: _338  and  _341
REMARK  139  A    between atoms: _344  and  _346
REMARK  140  A    between atoms: _346  and  _347
REMARK  141  A    between atoms: _346  and  _349
REMARK  142  A    between atoms: _349  and  _350
REMARK  143  A    between atoms: _350  and  _351
REMARK  144  A    between atoms: _351  and  _352
REMARK  145  A    between atoms: _352  and  _353
REMARK  146  A    between atoms: _357  and  _359
REMARK  147  A    between atoms: _359  and  _360
REMARK  148  A    between atoms: _359  and  _362
REMARK  149  A    between atoms: _362  and  _363
REMARK  150  A    between atoms: _363  and  _364
REMARK  151  A    between atoms: _366  and  _368
REMARK  152  A    between atoms: _368  and  _369
REMARK  153  A    between atoms: _368  and  _371
REMARK  154  A    between atoms: _371  and  _372
REMARK  155  A    between atoms: _375  and  _377
REMARK  156  A    between atoms: _377  and  _378
REMARK  157  A    between atoms: _380  and  _382
REMARK  158  A    between atoms: _382  and  _383
REMARK  159  A    between atoms: _385  and  _387
REMARK  160  A    between atoms: _387  and  _388
REMARK  161  A    between atoms: _387  and  _390
REMARK  162  A    between atoms: _390  and  _391
REMARK  163  A    between atoms: _394  and  _396
REMARK  164  A    between atoms: _396  and  _397
REMARK  165  A    between atoms: _399  and  _401
REMARK  166  A    between atoms: _401  and  _402
REMARK  167  A    between atoms: _404  and  _406
REMARK  168  A    between atoms: _406  and  _407
REMARK  169  A    between atoms: _406  and  _409
REMARK  170  A    between atoms: _409  and  _410
REMARK  171  A    between atoms: _416  and  _418
REMARK  172  A    between atoms: _418  and  _419
REMARK  173  A    between atoms: _418  and  _421
REMARK  174  A    between atoms: _421  and  _422
REMARK  175  A    between atoms: _425  and  _427
REMARK  176  A    between atoms: _427  and  _428
REMARK  177  A    between atoms: _427  and  _430
REMARK  178  A    between atoms: _430  and  _431
REMARK  179  A    between atoms: _435  and  _436
REMARK  180  A    between atoms: _441  and  _443
REMARK  181  A    between atoms: _443  and  _444
REMARK  182  A    between atoms: _443  and  _446
REMARK  183  A    between atoms: _446  and  _447
REMARK  184  A    between atoms: _451  and  _452
REMARK  185  A    between atoms: _457  and  _459
REMARK  186  A    between atoms: _459  and  _460
REMARK  187  A    between atoms: _459  and  _462
REMARK  188  A    between atoms: _465  and  _467
REMARK  189  A    between atoms: _467  and  _468
REMARK  190  A    between atoms: _467  and  _470
REMARK  191  A    between atoms: _470  and  _471
REMARK  192  A    between atoms: _476  and  _478
REMARK  193  A    between atoms: _478  and  _479
REMARK  194  A    between atoms: _478  and  _481
REMARK  195  A    between atoms: _481  and  _482
REMARK  196  A    between atoms: _485  and  _487
REMARK  197  A    between atoms: _487  and  _488
REMARK  198  A    between atoms: _487  and  _490
REMARK  199  A    between atoms: _490  and  _491
REMARK  200  A    between atoms: _494  and  _496
REMARK  201  A    between atoms: _496  and  _497
REMARK  202  A    between atoms: _499  and  _501
REMARK  203  A    between atoms: _501  and  _502
REMARK  204  A    between atoms: _501  and  _504
REMARK  205  A    between atoms: _504  and  _505
REMARK  206  A    between atoms: _505  and  _506
REMARK  207  A    between atoms: _506  and  _507
REMARK  208  A    between atoms: _516  and  _518
REMARK  209  A    between atoms: _518  and  _519
REMARK  210  A    between atoms: _518  and  _521
REMARK  211  A    between atoms: _521  and  _522
REMARK                            x       y       z     vdW  Elec       q    Type
REMARK                         _______ _______ _______ _____ _____    ______ ____
ROOT
ATOM      1  O   HOH     1      20.752  34.151  21.396  0.00  0.00    +0.000 OA
ENDROOT
TORSDOF 0
REMARK  Name = ../refined-set-2016/4djr/4djr_pocket.pdb
REMARK  211 active torsions:
REMARK  status: ('A' for Active; 'I' for Inactive)
REMARK    1  A    between atoms: _1  and  _3
REMARK    2  A    between atoms: _3  and  _4
REMARK    3  A    between atoms: _3  and  _6
REMARK    4  A    between atoms: _6  and  _7
REMARK    5  A    between atoms: _7  and  _8
REMARK    6  A    between atoms: _8  and  _9
REMARK    7  A    between atoms: _18  and  _20
REMARK    8  A    between atoms: _20  and  _21
REMARK    9  A    between atoms: _20  and  _23
REMARK   10  A    between atoms: _23  and  _24
REMARK   11  A    between atoms: _27  and  _29
REMARK   12  A    between atoms: _29  and  _30
REMARK   13  A    between atoms: _29  and  _32
REMARK   14  A    between atoms: _32  and  _33
REMARK   15  A    between atoms: _36  and  _38
REMARK   16  A    between atoms: _38  and  _39
REMARK   17  A    between atoms: _38  and  _41
REMARK   18  A    between atoms: _41  and  _42
REMARK   19  A    between atoms: _45  and  _47
REMARK   20  A    between atoms: _47  and  _48
REMARK   21  A    between atoms: _47  and  _50
REMARK   22  A    between atoms: _50  and  _51
REMARK   23  A    between atoms: _54  and  _56
REMARK   24  A    between atoms: _56  and  _57
REMARK   25  A    between atoms: _59  and  _61
REMARK   26  A    between atoms: _61  and  _62
REMARK   27  A    between atoms: _65  and  _67
REMARK   28  A    between atoms: _67  and  _68
REMARK   29  A    between atoms: _67  and  _70
REMARK   30  A    between atoms: _70  and  _71
REMARK   31  A    between atoms: _74  and  _76
REMARK   32  A    between atoms: _76  and  _77
REMARK   33  A    between atoms: _76  and  _79
REMARK   34  A    between atoms: _79  and  _80
REMARK   35  A    between atoms: _83  and  _85
REMARK   36  A    between atoms: _85  and  _86
REMARK   37  A    between atoms: _85  and  _88
REMARK   38  A    between atoms: _88  and  _89
REMARK   39  A    between atoms: _92  and  _94
REMARK   40  A    between atoms: _94  and  _95
REMARK   41  A    between atoms: _94  and  _97
REMARK   42  A    between atoms: _100  and  _102
REMARK   43  A    between atoms: _102  and  _103
REMARK   44  A    between atoms: _102  and  _105
REMARK   45  A    between atoms: _105  and  _106
REMARK   46  A    between atoms: _109  and  _111
REMARK   47  A    between atoms: _111  and  _112
REMARK   48  A    between atoms: _114  and  _116
REMARK   49  A    between atoms: _116  and  _117
REMARK   50  A    between atoms: _119  and  _121
REMARK   51  A    between atoms: _121  and  _122
REMARK   52  A    between atoms: _121  and  _124
REMARK   53  A    between atoms: _124  and  _125
REMARK   54  A    between atoms: _128  and  _130
REMARK   55  A    between atoms: _130  and  _131
REMARK   56  A    between atoms: _133  and  _135
REMARK   57  A    between atoms: _135  and  _136
REMARK   58  A    between atoms: _138  and  _140
REMARK   59  A    between atoms: _140  and  _141
REMARK   60  A    between atoms: _140  and  _143
REMARK   61  A    between atoms: _143  and  _144
REMARK   62  A    between atoms: _150  and  _152
REMARK   63  A    between atoms: _152  and  _153
REMARK   64  A    between atoms: _152  and  _155
REMARK   65  A    between atoms: _155  and  _156
REMARK   66  A    between atoms: _159  and  _161
REMARK   67  A    between atoms: _161  and  _162
REMARK   68  A    between atoms: _161  and  _164
REMARK   69  A    between atoms: _164  and  _165
REMARK   70  A    between atoms: _168  and  _170
REMARK   71  A    between atoms: _170  and  _171
REMARK   72  A    between atoms: _170  and  _173
REMARK   73  A    between atoms: _173  and  _174
REMARK   74  A    between atoms: _178  and  _179
REMARK   75  A    between atoms: _184  and  _186
REMARK   76  A    between atoms: _186  and  _187
REMARK   77  A    between atoms: _186  and  _189
REMARK   78  A    between atoms: _192  and  _194
REMARK   79  A    between atoms: _194  and  _195
REMARK   80  A    between atoms: _194  and  _197
REMARK   81  A    between atoms: _197  and  _198
REMARK   82  A    between atoms: _203  and  _205
REMARK   83  A    between atoms: _205  and  _206
REMARK   84  A    between atoms: _205  and  _208
REMARK   85  A    between atoms: _208  and  _209
REMARK   86  A    between atoms: _212  and  _214
REMARK   87  A    between atoms: _214  and  _215
REMARK   88  A    between atoms: _217  and  _219
REMARK   89  A    between atoms: _219  and  _220
REMARK   90  A    between atoms: _219  and  _222
REMARK   91  A    between atoms: _222  and  _223
REMARK   92  A    between atoms: _223  and  _224
REMARK   93  A    between atoms: _224  and  _225
REMARK   94  A    between atoms: _234  and  _236
REMARK   95  A    between atoms: _236  and  _237
REMARK   96  A    between atoms: _236  and  _239
REMARK   97  A    between atoms: _239  and  _240
REMARK   98  A    between atoms: _245  and  _247
REMARK   99  A    between atoms: _247  and  _248
REMARK  100  A    between atoms: _247  and  _250
REMARK  101  A    between atoms: _250  and  _251
REMARK  102  A    between atoms: _251  and  _252
REMARK  103  A    between atoms: _252  and  _253
REMARK  104  A    between atoms: _262  and  _264
REMARK  105  A    between atoms: _264  and  _265
REMARK  106  A    between atoms: _264  and  _267
REMARK  107  A    between atoms: _267  and  _268
REMARK  108  A    between atoms: _271  and  _273
REMARK  109  A    between atoms: _273  and  _274
REMARK  110  A    between atoms: _273  and  _276
REMARK  111  A    between atoms: _276  and  _277
REMARK  112  A    between atoms: _280  and  _282
REMARK  113  A    between atoms: _282  and  _283
REMARK  114  A    between atoms: _282  and  _285
REMARK  115  A    between atoms: _285  and  _286
REMARK  116  A    between atoms: _289  and  _291
REMARK  117  A    between atoms: _291  and  _292
REMARK  118  A    between atoms: _291  and  _294
REMARK  119  A    between atoms: _294  and  _295
REMARK  120  A    between atoms: _298  and  _300
REMARK  121  A    between atoms: _300  and  _301
REMARK  122  A    between atoms: _303  and  _305
REMARK  123  A    between atoms: _305  and  _306
REMARK  124  A    between atoms: _309  and  _311
REMARK  125  A    between atoms: _311  and  _312
REMARK  126  A    between atoms: _311  and  _314
REMARK  127  A    between atoms: _314  and  _315
REMARK  128  A    between atoms: _318  and  _320
REMARK  129  A    between atoms: _320  and  _321
REMARK  130  A    between atoms: _320  and  _323
REMARK  131  A    between atoms: _323  and  _324
REMARK  132  A    between atoms: _327  and  _329
REMARK  133  A    between atoms: _329  and  _330
REMARK  134  A    between atoms: _329  and  _332
REMARK  135  A    between atoms: _332  and  _333
REMARK  136  A    between atoms: _336  and  _338
REMARK  137  A    between atoms: _338  and  _339
REMARK  138  A    between atoms: _338  and  _341
REMARK  139  A    between atoms: _344  and  _346
REMARK  140  A    between atoms: _346  and  _347
REMARK  141  A    between atoms: _346  and  _349
REMARK  142  A    between atoms: _349  and  _350
REMARK  143  A    between atoms: _350  and  _351
REMARK  144  A    between atoms: _351  and  _352
REMARK  145  A    between atoms: _352  and  _353
REMARK  146  A    between atoms: _357  and  _359
REMARK  147  A    between atoms: _359  and  _360
REMARK  148  A    between atoms: _359  and  _362
REMARK  149  A    between atoms: _362  and  _363
REMARK  150  A    between atoms: _363  and  _364
REMARK  151  A    between atoms: _366  and  _368
REMARK  152  A    between atoms: _368  and  _369
REMARK  153  A    between atoms: _368  and  _371
REMARK  154  A    between atoms: _371  and  _372
REMARK  155  A    between atoms: _375  and  _377
REMARK  156  A    between atoms: _377  and  _378
REMARK  157  A    between atoms: _380  and  _382
REMARK  158  A    between atoms: _382  and  _383
REMARK  159  A    between atoms: _385  and  _387
REMARK  160  A    between atoms: _387  and  _388
REMARK  161  A    between atoms: _387  and  _390
REMARK  162  A    between atoms: _390  and  _391
REMARK  163  A    between atoms: _394  and  _396
REMARK  164  A    between atoms: _396  and  _397
REMARK  165  A    between atoms: _399  and  _401
REMARK  166  A    between atoms: _401  and  _402
REMARK  167  A    between atoms: _404  and  _406
REMARK  168  A    between atoms: _406  and  _407
REMARK  169  A    between atoms: _406  and  _409
REMARK  170  A    between atoms: _409  and  _410
REMARK  171  A    between atoms: _416  and  _418
REMARK  172  A    between atoms: _418  and  _419
REMARK  173  A    between atoms: _418  and  _421
REMARK  174  A    between atoms: _421  and  _422
REMARK  175  A    between atoms: _425  and  _427
REMARK  176  A    between atoms: _427  and  _428
REMARK  177  A    between atoms: _427  and  _430
REMARK  178  A    between atoms: _430  and  _431
REMARK  179  A    between atoms: _435  and  _436
REMARK  180  A    between atoms: _441  and  _443
REMARK  181  A    between atoms: _443  and  _444
REMARK  182  A    between atoms: _443  and  _446
REMARK  183  A    between atoms: _446  and  _447
REMARK  184  A    between atoms: _451  and  _452
REMARK  185  A    between atoms: _457  and  _459
REMARK  186  A    between atoms: _459  and  _460
REMARK  187  A    between atoms: _459  and  _462
REMARK  188  A    between atoms: _465  and  _467
REMARK  189  A    between atoms: _467  and  _468
REMARK  190  A    between atoms: _467  and  _470
REMARK  191  A    between atoms: _470  and  _471
REMARK  192  A    between atoms: _476  and  _478
REMARK  193  A    between atoms: _478  and  _479
REMARK  194  A    between atoms: _478  and  _481
REMARK  195  A    between atoms: _481  and  _482
REMARK  196  A    between atoms: _485  and  _487
REMARK  197  A    between atoms: _487  and  _488
REMARK  198  A    between atoms: _487  and  _490
REMARK  199  A    between atoms: _490  and  _491
REMARK  200  A    between atoms: _494  and  _496
REMARK  201  A    between atoms: _496  and  _497
REMARK  202  A    between atoms: _499  and  _501
REMARK  203  A    between atoms: _501  and  _502
REMARK  204  A    between atoms: _501  and  _504
REMARK  205  A    between atoms: _504  and  _505
REMARK  206  A    between atoms: _505  and  _506
REMARK  207  A    between atoms: _506  and  _507
REMARK  208  A    between atoms: _516  and  _518
REMARK  209  A    between atoms: _518  and  _519
REMARK  210  A    between atoms: _518  and  _521
REMARK  211  A    between atoms: _521  and  _522
REMARK                            x       y       z     vdW  Elec       q    Type
REMARK                         _______ _______ _______ _____ _____    ______ ____
ROOT
ATOM      1  O   HOH     1      18.534  34.393  19.114  0.00  0.00    +0.000 OA
ENDROOT
TORSDOF 0
REMARK  Name = ../refined-set-2016/4djr/4djr_pocket.pdb
REMARK  211 active torsions:
REMARK  status: ('A' for Active; 'I' for Inactive)
REMARK    1  A    between atoms: _1  and  _3
REMARK    2  A    between atoms: _3  and  _4
REMARK    3  A    between atoms: _3  and  _6
REMARK    4  A    between atoms: _6  and  _7
REMARK    5  A    between atoms: _7  and  _8
REMARK    6  A    between atoms: _8  and  _9
REMARK    7  A    between atoms: _18  and  _20
REMARK    8  A    between atoms: _20  and  _21
REMARK    9  A    between atoms: _20  and  _23
REMARK   10  A    between atoms: _23  and  _24
REMARK   11  A    between atoms: _27  and  _29
REMARK   12  A    between atoms: _29  and  _30
REMARK   13  A    between atoms: _29  and  _32
REMARK   14  A    between atoms: _32  and  _33
REMARK   15  A    between atoms: _36  and  _38
REMARK   16  A    between atoms: _38  and  _39
REMARK   17  A    between atoms: _38  and  _41
REMARK   18  A    between atoms: _41  and  _42
REMARK   19  A    between atoms: _45  and  _47
REMARK   20  A    between atoms: _47  and  _48
REMARK   21  A    between atoms: _47  and  _50
REMARK   22  A    between atoms: _50  and  _51
REMARK   23  A    between atoms: _54  and  _56
REMARK   24  A    between atoms: _56  and  _57
REMARK   25  A    between atoms: _59  and  _61
REMARK   26  A    between atoms: _61  and  _62
REMARK   27  A    between atoms: _65  and  _67
REMARK   28  A    between atoms: _67  and  _68
REMARK   29  A    between atoms: _67  and  _70
REMARK   30  A    between atoms: _70  and  _71
REMARK   31  A    between atoms: _74  and  _76
REMARK   32  A    between atoms: _76  and  _77
REMARK   33  A    between atoms: _76  and  _79
REMARK   34  A    between atoms: _79  and  _80
REMARK   35  A    between atoms: _83  and  _85
REMARK   36  A    between atoms: _85  and  _86
REMARK   37  A    between atoms: _85  and  _88
REMARK   38  A    between atoms: _88  and  _89
REMARK   39  A    between atoms: _92  and  _94
REMARK   40  A    between atoms: _94  and  _95
REMARK   41  A    between atoms: _94  and  _97
REMARK   42  A    between atoms: _100  and  _102
REMARK   43  A    between atoms: _102  and  _103
REMARK   44  A    between atoms: _102  and  _105
REMARK   45  A    between atoms: _105  and  _106
REMARK   46  A    between atoms: _109  and  _111
REMARK   47  A    between atoms: _111  and  _112
REMARK   48  A    between atoms: _114  and  _116
REMARK   49  A    between atoms: _116  and  _117
REMARK   50  A    between atoms: _119  and  _121
REMARK   51  A    between atoms: _121  and  _122
REMARK   52  A    between atoms: _121  and  _124
REMARK   53  A    between atoms: _124  and  _125
REMARK   54  A    between atoms: _128  and  _130
REMARK   55  A    between atoms: _130  and  _131
REMARK   56  A    between atoms: _133  and  _135
REMARK   57  A    between atoms: _135  and  _136
REMARK   58  A    between atoms: _138  and  _140
REMARK   59  A    between atoms: _140  and  _141
REMARK   60  A    between atoms: _140  and  _143
REMARK   61  A    between atoms: _143  and  _144
REMARK   62  A    between atoms: _150  and  _152
REMARK   63  A    between atoms: _152  and  _153
REMARK   64  A    between atoms: _152  and  _155
REMARK   65  A    between atoms: _155  and  _156
REMARK   66  A    between atoms: _159  and  _161
REMARK   67  A    between atoms: _161  and  _162
REMARK   68  A    between atoms: _161  and  _164
REMARK   69  A    between atoms: _164  and  _165
REMARK   70  A    between atoms: _168  and  _170
REMARK   71  A    between atoms: _170  and  _171
REMARK   72  A    between atoms: _170  and  _173
REMARK   73  A    between atoms: _173  and  _174
REMARK   74  A    between atoms: _178  and  _179
REMARK   75  A    between atoms: _184  and  _186
REMARK   76  A    between atoms: _186  and  _187
REMARK   77  A    between atoms: _186  and  _189
REMARK   78  A    between atoms: _192  and  _194
REMARK   79  A    between atoms: _194  and  _195
REMARK   80  A    between atoms: _194  and  _197
REMARK   81  A    between atoms: _197  and  _198
REMARK   82  A    between atoms: _203  and  _205
REMARK   83  A    between atoms: _205  and  _206
REMARK   84  A    between atoms: _205  and  _208
REMARK   85  A    between atoms: _208  and  _209
REMARK   86  A    between atoms: _212  and  _214
REMARK   87  A    between atoms: _214  and  _215
REMARK   88  A    between atoms: _217  and  _219
REMARK   89  A    between atoms: _219  and  _220
REMARK   90  A    between atoms: _219  and  _222
REMARK   91  A    between atoms: _222  and  _223
REMARK   92  A    between atoms: _223  and  _224
REMARK   93  A    between atoms: _224  and  _225
REMARK   94  A    between atoms: _234  and  _236
REMARK   95  A    between atoms: _236  and  _237
REMARK   96  A    between atoms: _236  and  _239
REMARK   97  A    between atoms: _239  and  _240
REMARK   98  A    between atoms: _245  and  _247
REMARK   99  A    between atoms: _247  and  _248
REMARK  100  A    between atoms: _247  and  _250
REMARK  101  A    between atoms: _250  and  _251
REMARK  102  A    between atoms: _251  and  _252
REMARK  103  A    between atoms: _252  and  _253
REMARK  104  A    between atoms: _262  and  _264
REMARK  105  A    between atoms: _264  and  _265
REMARK  106  A    between atoms: _264  and  _267
REMARK  107  A    between atoms: _267  and  _268
REMARK  108  A    between atoms: _271  and  _273
REMARK  109  A    between atoms: _273  and  _274
REMARK  110  A    between atoms: _273  and  _276
REMARK  111  A    between atoms: _276  and  _277
REMARK  112  A    between atoms: _280  and  _282
REMARK  113  A    between atoms: _282  and  _283
REMARK  114  A    between atoms: _282  and  _285
REMARK  115  A    between atoms: _285  and  _286
REMARK  116  A    between atoms: _289  and  _291
REMARK  117  A    between atoms: _291  and  _292
REMARK  118  A    between atoms: _291  and  _294
REMARK  119  A    between atoms: _294  and  _295
REMARK  120  A    between atoms: _298  and  _300
REMARK  121  A    between atoms: _300  and  _301
REMARK  122  A    between atoms: _303  and  _305
REMARK  123  A    between atoms: _305  and  _306
REMARK  124  A    between atoms: _309  and  _311
REMARK  125  A    between atoms: _311  and  _312
REMARK  126  A    between atoms: _311  and  _314
REMARK  127  A    between atoms: _314  and  _315
REMARK  128  A    between atoms: _318  and  _320
REMARK  129  A    between atoms: _320  and  _321
REMARK  130  A    between atoms: _320  and  _323
REMARK  131  A    between atoms: _323  and  _324
REMARK  132  A    between atoms: _327  and  _329
REMARK  133  A    between atoms: _329  and  _330
REMARK  134  A    between atoms: _329  and  _332
REMARK  135  A    between atoms: _332  and  _333
REMARK  136  A    between atoms: _336  and  _338
REMARK  137  A    between atoms: _338  and  _339
REMARK  138  A    between atoms: _338  and  _341
REMARK  139  A    between atoms: _344  and  _346
REMARK  140  A    between atoms: _346  and  _347
REMARK  141  A    between atoms: _346  and  _349
REMARK  142  A    between atoms: _349  and  _350
REMARK  143  A    between atoms: _350  and  _351
REMARK  144  A    between atoms: _351  and  _352
REMARK  145  A    between atoms: _352  and  _353
REMARK  146  A    between atoms: _357  and  _359
REMARK  147  A    between atoms: _359  and  _360
REMARK  148  A    between atoms: _359  and  _362
REMARK  149  A    between atoms: _362  and  _363
REMARK  150  A    between atoms: _363  and  _364
REMARK  151  A    between atoms: _366  and  _368
REMARK  152  A    between atoms: _368  and  _369
REMARK  153  A    between atoms: _368  and  _371
REMARK  154  A    between atoms: _371  and  _372
REMARK  155  A    between atoms: _375  and  _377
REMARK  156  A    between atoms: _377  and  _378
REMARK  157  A    between atoms: _380  and  _382
REMARK  158  A    between atoms: _382  and  _383
REMARK  159  A    between atoms: _385  and  _387
REMARK  160  A    between atoms: _387  and  _388
REMARK  161  A    between atoms: _387  and  _390
REMARK  162  A    between atoms: _390  and  _391
REMARK  163  A    between atoms: _394  and  _396
REMARK  164  A    between atoms: _396  and  _397
REMARK  165  A    between atoms: _399  and  _401
REMARK  166  A    between atoms: _401  and  _402
REMARK  167  A    between atoms: _404  and  _406
REMARK  168  A    between atoms: _406  and  _407
REMARK  169  A    between atoms: _406  and  _409
REMARK  170  A    between atoms: _409  and  _410
REMARK  171  A    between atoms: _416  and  _418
REMARK  172  A    between atoms: _418  and  _419
REMARK  173  A    between atoms: _418  and  _421
REMARK  174  A    between atoms: _421  and  _422
REMARK  175  A    between atoms: _425  and  _427
REMARK  176  A    between atoms: _427  and  _428
REMARK  177  A    between atoms: _427  and  _430
REMARK  178  A    between atoms: _430  and  _431
REMARK  179  A    between atoms: _435  and  _436
REMARK  180  A    between atoms: _441  and  _443
REMARK  181  A    between atoms: _443  and  _444
REMARK  182  A    between atoms: _443  and  _446
REMARK  183  A    between atoms: _446  and  _447
REMARK  184  A    between atoms: _451  and  _452
REMARK  185  A    between atoms: _457  and  _459
REMARK  186  A    between atoms: _459  and  _460
REMARK  187  A    between atoms: _459  and  _462
REMARK  188  A    between atoms: _465  and  _467
REMARK  189  A    between atoms: _467  and  _468
REMARK  190  A    between atoms: _467  and  _470
REMARK  191  A    between atoms: _470  and  _471
REMARK  192  A    between atoms: _476  and  _478
REMARK  193  A    between atoms: _478  and  _479
REMARK  194  A    between atoms: _478  and  _481
REMARK  195  A    between atoms: _481  and  _482
REMARK  196  A    between atoms: _485  and  _487
REMARK  197  A    between atoms: _487  and  _488
REMARK  198  A    between atoms: _487  and  _490
REMARK  199  A    between atoms: _490  and  _491
REMARK  200  A    between atoms: _494  and  _496
REMARK  201  A    between atoms: _496  and  _497
REMARK  202  A    between atoms: _499  and  _501
REMARK  203  A    between atoms: _501  and  _502
REMARK  204  A    between atoms: _501  and  _504
REMARK  205  A    between atoms: _504  and  _505
REMARK  206  A    between atoms: _505  and  _506
REMARK  207  A    between atoms: _506  and  _507
REMARK  208  A    between atoms: _516  and  _518
REMARK  209  A    between atoms: _518  and  _519
REMARK  210  A    between atoms: _518  and  _521
REMARK  211  A    between atoms: _521  and  _522
REMARK                            x       y       z     vdW  Elec       q    Type
REMARK                         _______ _______ _______ _____ _____    ______ ____
ROOT
ATOM      1  O   HOH     1       9.090  34.602  21.149  0.00  0.00    +0.000 OA
ENDROOT
TORSDOF 0
REMARK  Name = ../refined-set-2016/4djr/4djr_pocket.pdb
REMARK  211 active torsions:
REMARK  status: ('A' for Active; 'I' for Inactive)
REMARK    1  A    between atoms: _1  and  _3
REMARK    2  A    between atoms: _3  and  _4
REMARK    3  A    between atoms: _3  and  _6
REMARK    4  A    between atoms: _6  and  _7
REMARK    5  A    between atoms: _7  and  _8
REMARK    6  A    between atoms: _8  and  _9
REMARK    7  A    between atoms: _18  and  _20
REMARK    8  A    between atoms: _20  and  _21
REMARK    9  A    between atoms: _20  and  _23
REMARK   10  A    between atoms: _23  and  _24
REMARK   11  A    between atoms: _27  and  _29
REMARK   12  A    between atoms: _29  and  _30
REMARK   13  A    between atoms: _29  and  _32
REMARK   14  A    between atoms: _32  and  _33
REMARK   15  A    between atoms: _36  and  _38
REMARK   16  A    between atoms: _38  and  _39
REMARK   17  A    between atoms: _38  and  _41
REMARK   18  A    between atoms: _41  and  _42
REMARK   19  A    between atoms: _45  and  _47
REMARK   20  A    between atoms: _47  and  _48
REMARK   21  A    between atoms: _47  and  _50
REMARK   22  A    between atoms: _50  and  _51
REMARK   23  A    between atoms: _54  and  _56
REMARK   24  A    between atoms: _56  and  _57
REMARK   25  A    between atoms: _59  and  _61
REMARK   26  A    between atoms: _61  and  _62
REMARK   27  A    between atoms: _65  and  _67
REMARK   28  A    between atoms: _67  and  _68
REMARK   29  A    between atoms: _67  and  _70
REMARK   30  A    between atoms: _70  and  _71
REMARK   31  A    between atoms: _74  and  _76
REMARK   32  A    between atoms: _76  and  _77
REMARK   33  A    between atoms: _76  and  _79
REMARK   34  A    between atoms: _79  and  _80
REMARK   35  A    between atoms: _83  and  _85
REMARK   36  A    between atoms: _85  and  _86
REMARK   37  A    between atoms: _85  and  _88
REMARK   38  A    between atoms: _88  and  _89
REMARK   39  A    between atoms: _92  and  _94
REMARK   40  A    between atoms: _94  and  _95
REMARK   41  A    between atoms: _94  and  _97
REMARK   42  A    between atoms: _100  and  _102
REMARK   43  A    between atoms: _102  and  _103
REMARK   44  A    between atoms: _102  and  _105
REMARK   45  A    between atoms: _105  and  _106
REMARK   46  A    between atoms: _109  and  _111
REMARK   47  A    between atoms: _111  and  _112
REMARK   48  A    between atoms: _114  and  _116
REMARK   49  A    between atoms: _116  and  _117
REMARK   50  A    between atoms: _119  and  _121
REMARK   51  A    between atoms: _121  and  _122
REMARK   52  A    between atoms: _121  and  _124
REMARK   53  A    between atoms: _124  and  _125
REMARK   54  A    between atoms: _128  and  _130
REMARK   55  A    between atoms: _130  and  _131
REMARK   56  A    between atoms: _133  and  _135
REMARK   57  A    between atoms: _135  and  _136
REMARK   58  A    between atoms: _138  and  _140
REMARK   59  A    between atoms: _140  and  _141
REMARK   60  A    between atoms: _140  and  _143
REMARK   61  A    between atoms: _143  and  _144
REMARK   62  A    between atoms: _150  and  _152
REMARK   63  A    between atoms: _152  and  _153
REMARK   64  A    between atoms: _152  and  _155
REMARK   65  A    between atoms: _155  and  _156
REMARK   66  A    between atoms: _159  and  _161
REMARK   67  A    between atoms: _161  and  _162
REMARK   68  A    between atoms: _161  and  _164
REMARK   69  A    between atoms: _164  and  _165
REMARK   70  A    between atoms: _168  and  _170
REMARK   71  A    between atoms: _170  and  _171
REMARK   72  A    between atoms: _170  and  _173
REMARK   73  A    between atoms: _173  and  _174
REMARK   74  A    between atoms: _178  and  _179
REMARK   75  A    between atoms: _184  and  _186
REMARK   76  A    between atoms: _186  and  _187
REMARK   77  A    between atoms: _186  and  _189
REMARK   78  A    between atoms: _192  and  _194
REMARK   79  A    between atoms: _194  and  _195
REMARK   80  A    between atoms: _194  and  _197
REMARK   81  A    between atoms: _197  and  _198
REMARK   82  A    between atoms: _203  and  _205
REMARK   83  A    between atoms: _205  and  _206
REMARK   84  A    between atoms: _205  and  _208
REMARK   85  A    between atoms: _208  and  _209
REMARK   86  A    between atoms: _212  and  _214
REMARK   87  A    between atoms: _214  and  _215
REMARK   88  A    between atoms: _217  and  _219
REMARK   89  A    between atoms: _219  and  _220
REMARK   90  A    between atoms: _219  and  _222
REMARK   91  A    between atoms: _222  and  _223
REMARK   92  A    between atoms: _223  and  _224
REMARK   93  A    between atoms: _224  and  _225
REMARK   94  A    between atoms: _234  and  _236
REMARK   95  A    between atoms: _236  and  _237
REMARK   96  A    between atoms: _236  and  _239
REMARK   97  A    between atoms: _239  and  _240
REMARK   98  A    between atoms: _245  and  _247
REMARK   99  A    between atoms: _247  and  _248
REMARK  100  A    between atoms: _247  and  _250
REMARK  101  A    between atoms: _250  and  _251
REMARK  102  A    between atoms: _251  and  _252
REMARK  103  A    between atoms: _252  and  _253
REMARK  104  A    between atoms: _262  and  _264
REMARK  105  A    between atoms: _264  and  _265
REMARK  106  A    between atoms: _264  and  _267
REMARK  107  A    between atoms: _267  and  _268
REMARK  108  A    between atoms: _271  and  _273
REMARK  109  A    between atoms: _273  and  _274
REMARK  110  A    between atoms: _273  and  _276
REMARK  111  A    between atoms: _276  and  _277
REMARK  112  A    between atoms: _280  and  _282
REMARK  113  A    between atoms: _282  and  _283
REMARK  114  A    between atoms: _282  and  _285
REMARK  115  A    between atoms: _285  and  _286
REMARK  116  A    between atoms: _289  and  _291
REMARK  117  A    between atoms: _291  and  _292
REMARK  118  A    between atoms: _291  and  _294
REMARK  119  A    between atoms: _294  and  _295
REMARK  120  A    between atoms: _298  and  _300
REMARK  121  A    between atoms: _300  and  _301
REMARK  122  A    between atoms: _303  and  _305
REMARK  123  A    between atoms: _305  and  _306
REMARK  124  A    between atoms: _309  and  _311
REMARK  125  A    between atoms: _311  and  _312
REMARK  126  A    between atoms: _311  and  _314
REMARK  127  A    between atoms: _314  and  _315
REMARK  128  A    between atoms: _318  and  _320
REMARK  129  A    between atoms: _320  and  _321
REMARK  130  A    between atoms: _320  and  _323
REMARK  131  A    between atoms: _323  and  _324
REMARK  132  A    between atoms: _327  and  _329
REMARK  133  A    between atoms: _329  and  _330
REMARK  134  A    between atoms: _329  and  _332
REMARK  135  A    between atoms: _332  and  _333
REMARK  136  A    between atoms: _336  and  _338
REMARK  137  A    between atoms: _338  and  _339
REMARK  138  A    between atoms: _338  and  _341
REMARK  139  A    between atoms: _344  and  _346
REMARK  140  A    between atoms: _346  and  _347
REMARK  141  A    between atoms: _346  and  _349
REMARK  142  A    between atoms: _349  and  _350
REMARK  143  A    between atoms: _350  and  _351
REMARK  144  A    between atoms: _351  and  _352
REMARK  145  A    between atoms: _352  and  _353
REMARK  146  A    between atoms: _357  and  _359
REMARK  147  A    between atoms: _359  and  _360
REMARK  148  A    between atoms: _359  and  _362
REMARK  149  A    between atoms: _362  and  _363
REMARK  150  A    between atoms: _363  and  _364
REMARK  151  A    between atoms: _366  and  _368
REMARK  152  A    between atoms: _368  and  _369
REMARK  153  A    between atoms: _368  and  _371
REMARK  154  A    between atoms: _371  and  _372
REMARK  155  A    between atoms: _375  and  _377
REMARK  156  A    between atoms: _377  and  _378
REMARK  157  A    between atoms: _380  and  _382
REMARK  158  A    between atoms: _382  and  _383
REMARK  159  A    between atoms: _385  and  _387
REMARK  160  A    between atoms: _387  and  _388
REMARK  161  A    between atoms: _387  and  _390
REMARK  162  A    between atoms: _390  and  _391
REMARK  163  A    between atoms: _394  and  _396
REMARK  164  A    between atoms: _396  and  _397
REMARK  165  A    between atoms: _399  and  _401
REMARK  166  A    between atoms: _401  and  _402
REMARK  167  A    between atoms: _404  and  _406
REMARK  168  A    between atoms: _406  and  _407
REMARK  169  A    between atoms: _406  and  _409
REMARK  170  A    between atoms: _409  and  _410
REMARK  171  A    between atoms: _416  and  _418
REMARK  172  A    between atoms: _418  and  _419
REMARK  173  A    between atoms: _418  and  _421
REMARK  174  A    between atoms: _421  and  _422
REMARK  175  A    between atoms: _425  and  _427
REMARK  176  A    between atoms: _427  and  _428
REMARK  177  A    between atoms: _427  and  _430
REMARK  178  A    between atoms: _430  and  _431
REMARK  179  A    between atoms: _435  and  _436
REMARK  180  A    between atoms: _441  and  _443
REMARK  181  A    between atoms: _443  and  _444
REMARK  182  A    between atoms: _443  and  _446
REMARK  183  A    between atoms: _446  and  _447
REMARK  184  A    between atoms: _451  and  _452
REMARK  185  A    between atoms: _457  and  _459
REMARK  186  A    between atoms: _459  and  _460
REMARK  187  A    between atoms: _459  and  _462
REMARK  188  A    between atoms: _465  and  _467
REMARK  189  A    between atoms: _467  and  _468
REMARK  190  A    between atoms: _467  and  _470
REMARK  191  A    between atoms: _470  and  _471
REMARK  192  A    between atoms: _476  and  _478
REMARK  193  A    between atoms: _478  and  _479
REMARK  194  A    between atoms: _478  and  _481
REMARK  195  A    between atoms: _481  and  _482
REMARK  196  A    between atoms: _485  and  _487
REMARK  197  A    between atoms: _487  and  _488
REMARK  198  A    between atoms: _487  and  _490
REMARK  199  A    between atoms: _490  and  _491
REMARK  200  A    between atoms: _494  and  _496
REMARK  201  A    between atoms: _496  and  _497
REMARK  202  A    between atoms: _499  and  _501
REMARK  203  A    between atoms: _501  and  _502
REMARK  204  A    between atoms: _501  and  _504
REMARK  205  A    between atoms: _504  and  _505
REMARK  206  A    between atoms: _505  and  _506
REMARK  207  A    between atoms: _506  and  _507
REMARK  208  A    between atoms: _516  and  _518
REMARK  209  A    between atoms: _518  and  _519
REMARK  210  A    between atoms: _518  and  _521
REMARK  211  A    between atoms: _521  and  _522
REMARK                            x       y       z     vdW  Elec       q    Type
REMARK                         _______ _______ _______ _____ _____    ______ ____
ROOT
ATOM      1  O   HOH     1      17.572  40.146  16.018  0.00  0.00    +0.000 OA
ENDROOT
TORSDOF 0
REMARK  Name = ../refined-set-2016/4djr/4djr_pocket.pdb
REMARK  211 active torsions:
REMARK  status: ('A' for Active; 'I' for Inactive)
REMARK    1  A    between atoms: _1  and  _3
REMARK    2  A    between atoms: _3  and  _4
REMARK    3  A    between atoms: _3  and  _6
REMARK    4  A    between atoms: _6  and  _7
REMARK    5  A    between atoms: _7  and  _8
REMARK    6  A    between atoms: _8  and  _9
REMARK    7  A    between atoms: _18  and  _20
REMARK    8  A    between atoms: _20  and  _21
REMARK    9  A    between atoms: _20  and  _23
REMARK   10  A    between atoms: _23  and  _24
REMARK   11  A    between atoms: _27  and  _29
REMARK   12  A    between atoms: _29  and  _30
REMARK   13  A    between atoms: _29  and  _32
REMARK   14  A    between atoms: _32  and  _33
REMARK   15  A    between atoms: _36  and  _38
REMARK   16  A    between atoms: _38  and  _39
REMARK   17  A    between atoms: _38  and  _41
REMARK   18  A    between atoms: _41  and  _42
REMARK   19  A    between atoms: _45  and  _47
REMARK   20  A    between atoms: _47  and  _48
REMARK   21  A    between atoms: _47  and  _50
REMARK   22  A    between atoms: _50  and  _51
REMARK   23  A    between atoms: _54  and  _56
REMARK   24  A    between atoms: _56  and  _57
REMARK   25  A    between atoms: _59  and  _61
REMARK   26  A    between atoms: _61  and  _62
REMARK   27  A    between atoms: _65  and  _67
REMARK   28  A    between atoms: _67  and  _68
REMARK   29  A    between atoms: _67  and  _70
REMARK   30  A    between atoms: _70  and  _71
REMARK   31  A    between atoms: _74  and  _76
REMARK   32  A    between atoms: _76  and  _77
REMARK   33  A    between atoms: _76  and  _79
REMARK   34  A    between atoms: _79  and  _80
REMARK   35  A    between atoms: _83  and  _85
REMARK   36  A    between atoms: _85  and  _86
REMARK   37  A    between atoms: _85  and  _88
REMARK   38  A    between atoms: _88  and  _89
REMARK   39  A    between atoms: _92  and  _94
REMARK   40  A    between atoms: _94  and  _95
REMARK   41  A    between atoms: _94  and  _97
REMARK   42  A    between atoms: _100  and  _102
REMARK   43  A    between atoms: _102  and  _103
REMARK   44  A    between atoms: _102  and  _105
REMARK   45  A    between atoms: _105  and  _106
REMARK   46  A    between atoms: _109  and  _111
REMARK   47  A    between atoms: _111  and  _112
REMARK   48  A    between atoms: _114  and  _116
REMARK   49  A    between atoms: _116  and  _117
REMARK   50  A    between atoms: _119  and  _121
REMARK   51  A    between atoms: _121  and  _122
REMARK   52  A    between atoms: _121  and  _124
REMARK   53  A    between atoms: _124  and  _125
REMARK   54  A    between atoms: _128  and  _130
REMARK   55  A    between atoms: _130  and  _131
REMARK   56  A    between atoms: _133  and  _135
REMARK   57  A    between atoms: _135  and  _136
REMARK   58  A    between atoms: _138  and  _140
REMARK   59  A    between atoms: _140  and  _141
REMARK   60  A    between atoms: _140  and  _143
REMARK   61  A    between atoms: _143  and  _144
REMARK   62  A    between atoms: _150  and  _152
REMARK   63  A    between atoms: _152  and  _153
REMARK   64  A    between atoms: _152  and  _155
REMARK   65  A    between atoms: _155  and  _156
REMARK   66  A    between atoms: _159  and  _161
REMARK   67  A    between atoms: _161  and  _162
REMARK   68  A    between atoms: _161  and  _164
REMARK   69  A    between atoms: _164  and  _165
REMARK   70  A    between atoms: _168  and  _170
REMARK   71  A    between atoms: _170  and  _171
REMARK   72  A    between atoms: _170  and  _173
REMARK   73  A    between atoms: _173  and  _174
REMARK   74  A    between atoms: _178  and  _179
REMARK   75  A    between atoms: _184  and  _186
REMARK   76  A    between atoms: _186  and  _187
REMARK   77  A    between atoms: _186  and  _189
REMARK   78  A    between atoms: _192  and  _194
REMARK   79  A    between atoms: _194  and  _195
REMARK   80  A    between atoms: _194  and  _197
REMARK   81  A    between atoms: _197  and  _198
REMARK   82  A    between atoms: _203  and  _205
REMARK   83  A    between atoms: _205  and  _206
REMARK   84  A    between atoms: _205  and  _208
REMARK   85  A    between atoms: _208  and  _209
REMARK   86  A    between atoms: _212  and  _214
REMARK   87  A    between atoms: _214  and  _215
REMARK   88  A    between atoms: _217  and  _219
REMARK   89  A    between atoms: _219  and  _220
REMARK   90  A    between atoms: _219  and  _222
REMARK   91  A    between atoms: _222  and  _223
REMARK   92  A    between atoms: _223  and  _224
REMARK   93  A    between atoms: _224  and  _225
REMARK   94  A    between atoms: _234  and  _236
REMARK   95  A    between atoms: _236  and  _237
REMARK   96  A    between atoms: _236  and  _239
REMARK   97  A    between atoms: _239  and  _240
REMARK   98  A    between atoms: _245  and  _247
REMARK   99  A    between atoms: _247  and  _248
REMARK  100  A    between atoms: _247  and  _250
REMARK  101  A    between atoms: _250  and  _251
REMARK  102  A    between atoms: _251  and  _252
REMARK  103  A    between atoms: _252  and  _253
REMARK  104  A    between atoms: _262  and  _264
REMARK  105  A    between atoms: _264  and  _265
REMARK  106  A    between atoms: _264  and  _267
REMARK  107  A    between atoms: _267  and  _268
REMARK  108  A    between atoms: _271  and  _273
REMARK  109  A    between atoms: _273  and  _274
REMARK  110  A    between atoms: _273  and  _276
REMARK  111  A    between atoms: _276  and  _277
REMARK  112  A    between atoms: _280  and  _282
REMARK  113  A    between atoms: _282  and  _283
REMARK  114  A    between atoms: _282  and  _285
REMARK  115  A    between atoms: _285  and  _286
REMARK  116  A    between atoms: _289  and  _291
REMARK  117  A    between atoms: _291  and  _292
REMARK  118  A    between atoms: _291  and  _294
REMARK  119  A    between atoms: _294  and  _295
REMARK  120  A    between atoms: _298  and  _300
REMARK  121  A    between atoms: _300  and  _301
REMARK  122  A    between atoms: _303  and  _305
REMARK  123  A    between atoms: _305  and  _306
REMARK  124  A    between atoms: _309  and  _311
REMARK  125  A    between atoms: _311  and  _312
REMARK  126  A    between atoms: _311  and  _314
REMARK  127  A    between atoms: _314  and  _315
REMARK  128  A    between atoms: _318  and  _320
REMARK  129  A    between atoms: _320  and  _321
REMARK  130  A    between atoms: _320  and  _323
REMARK  131  A    between atoms: _323  and  _324
REMARK  132  A    between atoms: _327  and  _329
REMARK  133  A    between atoms: _329  and  _330
REMARK  134  A    between atoms: _329  and  _332
REMARK  135  A    between atoms: _332  and  _333
REMARK  136  A    between atoms: _336  and  _338
REMARK  137  A    between atoms: _338  and  _339
REMARK  138  A    between atoms: _338  and  _341
REMARK  139  A    between atoms: _344  and  _346
REMARK  140  A    between atoms: _346  and  _347
REMARK  141  A    between atoms: _346  and  _349
REMARK  142  A    between atoms: _349  and  _350
REMARK  143  A    between atoms: _350  and  _351
REMARK  144  A    between atoms: _351  and  _352
REMARK  145  A    between atoms: _352  and  _353
REMARK  146  A    between atoms: _357  and  _359
REMARK  147  A    between atoms: _359  and  _360
REMARK  148  A    between atoms: _359  and  _362
REMARK  149  A    between atoms: _362  and  _363
REMARK  150  A    between atoms: _363  and  _364
REMARK  151  A    between atoms: _366  and  _368
REMARK  152  A    between atoms: _368  and  _369
REMARK  153  A    between atoms: _368  and  _371
REMARK  154  A    between atoms: _371  and  _372
REMARK  155  A    between atoms: _375  and  _377
REMARK  156  A    between atoms: _377  and  _378
REMARK  157  A    between atoms: _380  and  _382
REMARK  158  A    between atoms: _382  and  _383
REMARK  159  A    between atoms: _385  and  _387
REMARK  160  A    between atoms: _387  and  _388
REMARK  161  A    between atoms: _387  and  _390
REMARK  162  A    between atoms: _390  and  _391
REMARK  163  A    between atoms: _394  and  _396
REMARK  164  A    between atoms: _396  and  _397
REMARK  165  A    between atoms: _399  and  _401
REMARK  166  A    between atoms: _401  and  _402
REMARK  167  A    between atoms: _404  and  _406
REMARK  168  A    between atoms: _406  and  _407
REMARK  169  A    between atoms: _406  and  _409
REMARK  170  A    between atoms: _409  and  _410
REMARK  171  A    between atoms: _416  and  _418
REMARK  172  A    between atoms: _418  and  _419
REMARK  173  A    between atoms: _418  and  _421
REMARK  174  A    between atoms: _421  and  _422
REMARK  175  A    between atoms: _425  and  _427
REMARK  176  A    between atoms: _427  and  _428
REMARK  177  A    between atoms: _427  and  _430
REMARK  178  A    between atoms: _430  and  _431
REMARK  179  A    between atoms: _435  and  _436
REMARK  180  A    between atoms: _441  and  _443
REMARK  181  A    between atoms: _443  and  _444
REMARK  182  A    between atoms: _443  and  _446
REMARK  183  A    between atoms: _446  and  _447
REMARK  184  A    between atoms: _451  and  _452
REMARK  185  A    between atoms: _457  and  _459
REMARK  186  A    between atoms: _459  and  _460
REMARK  187  A    between atoms: _459  and  _462
REMARK  188  A    between atoms: _465  and  _467
REMARK  189  A    between atoms: _467  and  _468
REMARK  190  A    between atoms: _467  and  _470
REMARK  191  A    between atoms: _470  and  _471
REMARK  192  A    between atoms: _476  and  _478
REMARK  193  A    between atoms: _478  and  _479
REMARK  194  A    between atoms: _478  and  _481
REMARK  195  A    between atoms: _481  and  _482
REMARK  196  A    between atoms: _485  and  _487
REMARK  197  A    between atoms: _487  and  _488
REMARK  198  A    between atoms: _487  and  _490
REMARK  199  A    between atoms: _490  and  _491
REMARK  200  A    between atoms: _494  and  _496
REMARK  201  A    between atoms: _496  and  _497
REMARK  202  A    between atoms: _499  and  _501
REMARK  203  A    between atoms: _501  and  _502
REMARK  204  A    between atoms: _501  and  _504
REMARK  205  A    between atoms: _504  and  _505
REMARK  206  A    between atoms: _505  and  _506
REMARK  207  A    between atoms: _506  and  _507
REMARK  208  A    between atoms: _516  and  _518
REMARK  209  A    between atoms: _518  and  _519
REMARK  210  A    between atoms: _518  and  _521
REMARK  211  A    between atoms: _521  and  _522
REMARK                            x       y       z     vdW  Elec       q    Type
REMARK                         _______ _______ _______ _____ _____    ______ ____
ROOT
ATOM      1  O   HOH     1      14.480  34.872  25.758  0.00  0.00    +0.000 OA
ENDROOT
TORSDOF 0
REMARK  Name = ../refined-set-2016/4djr/4djr_pocket.pdb
REMARK  211 active torsions:
REMARK  status: ('A' for Active; 'I' for Inactive)
REMARK    1  A    between atoms: _1  and  _3
REMARK    2  A    between atoms: _3  and  _4
REMARK    3  A    between atoms: _3  and  _6
REMARK    4  A    between atoms: _6  and  _7
REMARK    5  A    between atoms: _7  and  _8
REMARK    6  A    between atoms: _8  and  _9
REMARK    7  A    between atoms: _18  and  _20
REMARK    8  A    between atoms: _20  and  _21
REMARK    9  A    between atoms: _20  and  _23
REMARK   10  A    between atoms: _23  and  _24
REMARK   11  A    between atoms: _27  and  _29
REMARK   12  A    between atoms: _29  and  _30
REMARK   13  A    between atoms: _29  and  _32
REMARK   14  A    between atoms: _32  and  _33
REMARK   15  A    between atoms: _36  and  _38
REMARK   16  A    between atoms: _38  and  _39
REMARK   17  A    between atoms: _38  and  _41
REMARK   18  A    between atoms: _41  and  _42
REMARK   19  A    between atoms: _45  and  _47
REMARK   20  A    between atoms: _47  and  _48
REMARK   21  A    between atoms: _47  and  _50
REMARK   22  A    between atoms: _50  and  _51
REMARK   23  A    between atoms: _54  and  _56
REMARK   24  A    between atoms: _56  and  _57
REMARK   25  A    between atoms: _59  and  _61
REMARK   26  A    between atoms: _61  and  _62
REMARK   27  A    between atoms: _65  and  _67
REMARK   28  A    between atoms: _67  and  _68
REMARK   29  A    between atoms: _67  and  _70
REMARK   30  A    between atoms: _70  and  _71
REMARK   31  A    between atoms: _74  and  _76
REMARK   32  A    between atoms: _76  and  _77
REMARK   33  A    between atoms: _76  and  _79
REMARK   34  A    between atoms: _79  and  _80
REMARK   35  A    between atoms: _83  and  _85
REMARK   36  A    between atoms: _85  and  _86
REMARK   37  A    between atoms: _85  and  _88
REMARK   38  A    between atoms: _88  and  _89
REMARK   39  A    between atoms: _92  and  _94
REMARK   40  A    between atoms: _94  and  _95
REMARK   41  A    between atoms: _94  and  _97
REMARK   42  A    between atoms: _100  and  _102
REMARK   43  A    between atoms: _102  and  _103
REMARK   44  A    between atoms: _102  and  _105
REMARK   45  A    between atoms: _105  and  _106
REMARK   46  A    between atoms: _109  and  _111
REMARK   47  A    between atoms: _111  and  _112
REMARK   48  A    between atoms: _114  and  _116
REMARK   49  A    between atoms: _116  and  _117
REMARK   50  A    between atoms: _119  and  _121
REMARK   51  A    between atoms: _121  and  _122
REMARK   52  A    between atoms: _121  and  _124
REMARK   53  A    between atoms: _124  and  _125
REMARK   54  A    between atoms: _128  and  _130
REMARK   55  A    between atoms: _130  and  _131
REMARK   56  A    between atoms: _133  and  _135
REMARK   57  A    between atoms: _135  and  _136
REMARK   58  A    between atoms: _138  and  _140
REMARK   59  A    between atoms: _140  and  _141
REMARK   60  A    between atoms: _140  and  _143
REMARK   61  A    between atoms: _143  and  _144
REMARK   62  A    between atoms: _150  and  _152
REMARK   63  A    between atoms: _152  and  _153
REMARK   64  A    between atoms: _152  and  _155
REMARK   65  A    between atoms: _155  and  _156
REMARK   66  A    between atoms: _159  and  _161
REMARK   67  A    between atoms: _161  and  _162
REMARK   68  A    between atoms: _161  and  _164
REMARK   69  A    between atoms: _164  and  _165
REMARK   70  A    between atoms: _168  and  _170
REMARK   71  A    between atoms: _170  and  _171
REMARK   72  A    between atoms: _170  and  _173
REMARK   73  A    between atoms: _173  and  _174
REMARK   74  A    between atoms: _178  and  _179
REMARK   75  A    between atoms: _184  and  _186
REMARK   76  A    between atoms: _186  and  _187
REMARK   77  A    between atoms: _186  and  _189
REMARK   78  A    between atoms: _192  and  _194
REMARK   79  A    between atoms: _194  and  _195
REMARK   80  A    between atoms: _194  and  _197
REMARK   81  A    between atoms: _197  and  _198
REMARK   82  A    between atoms: _203  and  _205
REMARK   83  A    between atoms: _205  and  _206
REMARK   84  A    between atoms: _205  and  _208
REMARK   85  A    between atoms: _208  and  _209
REMARK   86  A    between atoms: _212  and  _214
REMARK   87  A    between atoms: _214  and  _215
REMARK   88  A    between atoms: _217  and  _219
REMARK   89  A    between atoms: _219  and  _220
REMARK   90  A    between atoms: _219  and  _222
REMARK   91  A    between atoms: _222  and  _223
REMARK   92  A    between atoms: _223  and  _224
REMARK   93  A    between atoms: _224  and  _225
REMARK   94  A    between atoms: _234  and  _236
REMARK   95  A    between atoms: _236  and  _237
REMARK   96  A    between atoms: _236  and  _239
REMARK   97  A    between atoms: _239  and  _240
REMARK   98  A    between atoms: _245  and  _247
REMARK   99  A    between atoms: _247  and  _248
REMARK  100  A    between atoms: _247  and  _250
REMARK  101  A    between atoms: _250  and  _251
REMARK  102  A    between atoms: _251  and  _252
REMARK  103  A    between atoms: _252  and  _253
REMARK  104  A    between atoms: _262  and  _264
REMARK  105  A    between atoms: _264  and  _265
REMARK  106  A    between atoms: _264  and  _267
REMARK  107  A    between atoms: _267  and  _268
REMARK  108  A    between atoms: _271  and  _273
REMARK  109  A    between atoms: _273  and  _274
REMARK  110  A    between atoms: _273  and  _276
REMARK  111  A    between atoms: _276  and  _277
REMARK  112  A    between atoms: _280  and  _282
REMARK  113  A    between atoms: _282  and  _283
REMARK  114  A    between atoms: _282  and  _285
REMARK  115  A    between atoms: _285  and  _286
REMARK  116  A    between atoms: _289  and  _291
REMARK  117  A    between atoms: _291  and  _292
REMARK  118  A    between atoms: _291  and  _294
REMARK  119  A    between atoms: _294  and  _295
REMARK  120  A    between atoms: _298  and  _300
REMARK  121  A    between atoms: _300  and  _301
REMARK  122  A    between atoms: _303  and  _305
REMARK  123  A    between atoms: _305  and  _306
REMARK  124  A    between atoms: _309  and  _311
REMARK  125  A    between atoms: _311  and  _312
REMARK  126  A    between atoms: _311  and  _314
REMARK  127  A    between atoms: _314  and  _315
REMARK  128  A    between atoms: _318  and  _320
REMARK  129  A    between atoms: _320  and  _321
REMARK  130  A    between atoms: _320  and  _323
REMARK  131  A    between atoms: _323  and  _324
REMARK  132  A    between atoms: _327  and  _329
REMARK  133  A    between atoms: _329  and  _330
REMARK  134  A    between atoms: _329  and  _332
REMARK  135  A    between atoms: _332  and  _333
REMARK  136  A    between atoms: _336  and  _338
REMARK  137  A    between atoms: _338  and  _339
REMARK  138  A    between atoms: _338  and  _341
REMARK  139  A    between atoms: _344  and  _346
REMARK  140  A    between atoms: _346  and  _347
REMARK  141  A    between atoms: _346  and  _349
REMARK  142  A    between atoms: _349  and  _350
REMARK  143  A    between atoms: _350  and  _351
REMARK  144  A    between atoms: _351  and  _352
REMARK  145  A    between atoms: _352  and  _353
REMARK  146  A    between atoms: _357  and  _359
REMARK  147  A    between atoms: _359  and  _360
REMARK  148  A    between atoms: _359  and  _362
REMARK  149  A    between atoms: _362  and  _363
REMARK  150  A    between atoms: _363  and  _364
REMARK  151  A    between atoms: _366  and  _368
REMARK  152  A    between atoms: _368  and  _369
REMARK  153  A    between atoms: _368  and  _371
REMARK  154  A    between atoms: _371  and  _372
REMARK  155  A    between atoms: _375  and  _377
REMARK  156  A    between atoms: _377  and  _378
REMARK  157  A    between atoms: _380  and  _382
REMARK  158  A    between atoms: _382  and  _383
REMARK  159  A    between atoms: _385  and  _387
REMARK  160  A    between atoms: _387  and  _388
REMARK  161  A    between atoms: _387  and  _390
REMARK  162  A    between atoms: _390  and  _391
REMARK  163  A    between atoms: _394  and  _396
REMARK  164  A    between atoms: _396  and  _397
REMARK  165  A    between atoms: _399  and  _401
REMARK  166  A    between atoms: _401  and  _402
REMARK  167  A    between atoms: _404  and  _406
REMARK  168  A    between atoms: _406  and  _407
REMARK  169  A    between atoms: _406  and  _409
REMARK  170  A    between atoms: _409  and  _410
REMARK  171  A    between atoms: _416  and  _418
REMARK  172  A    between atoms: _418  and  _419
REMARK  173  A    between atoms: _418  and  _421
REMARK  174  A    between atoms: _421  and  _422
REMARK  175  A    between atoms: _425  and  _427
REMARK  176  A    between atoms: _427  and  _428
REMARK  177  A    between atoms: _427  and  _430
REMARK  178  A    between atoms: _430  and  _431
REMARK  179  A    between atoms: _435  and  _436
REMARK  180  A    between atoms: _441  and  _443
REMARK  181  A    between atoms: _443  and  _444
REMARK  182  A    between atoms: _443  and  _446
REMARK  183  A    between atoms: _446  and  _447
REMARK  184  A    between atoms: _451  and  _452
REMARK  185  A    between atoms: _457  and  _459
REMARK  186  A    between atoms: _459  and  _460
REMARK  187  A    between atoms: _459  and  _462
REMARK  188  A    between atoms: _465  and  _467
REMARK  189  A    between atoms: _467  and  _468
REMARK  190  A    between atoms: _467  and  _470
REMARK  191  A    between atoms: _470  and  _471
REMARK  192  A    between atoms: _476  and  _478
REMARK  193  A    between atoms: _478  and  _479
REMARK  194  A    between atoms: _478  and  _481
REMARK  195  A    between atoms: _481  and  _482
REMARK  196  A    between atoms: _485  and  _487
REMARK  197  A    between atoms: _487  and  _488
REMARK  198  A    between atoms: _487  and  _490
REMARK  199  A    between atoms: _490  and  _491
REMARK  200  A    between atoms: _494  and  _496
REMARK  201  A    between atoms: _496  and  _497
REMARK  202  A    between atoms: _499  and  _501
REMARK  203  A    between atoms: _501  and  _502
REMARK  204  A    between atoms: _501  and  _504
REMARK  205  A    between atoms: _504  and  _505
REMARK  206  A    between atoms: _505  and  _506
REMARK  207  A    between atoms: _506  and  _507
REMARK  208  A    between atoms: _516  and  _518
REMARK  209  A    between atoms: _518  and  _519
REMARK  210  A    between atoms: _518  and  _521
REMARK  211  A    between atoms: _521  and  _522
REMARK                            x       y       z     vdW  Elec       q    Type
REMARK                         _______ _______ _______ _____ _____    ______ ____
ROOT
ATOM      1  O   HOH     1      19.685  38.176  16.411  0.00  0.00    +0.000 OA
ENDROOT
TORSDOF 0
REMARK  Name = ../refined-set-2016/4djr/4djr_pocket.pdb
REMARK  211 active torsions:
REMARK  status: ('A' for Active; 'I' for Inactive)
REMARK    1  A    between atoms: _1  and  _3
REMARK    2  A    between atoms: _3  and  _4
REMARK    3  A    between atoms: _3  and  _6
REMARK    4  A    between atoms: _6  and  _7
REMARK    5  A    between atoms: _7  and  _8
REMARK    6  A    between atoms: _8  and  _9
REMARK    7  A    between atoms: _18  and  _20
REMARK    8  A    between atoms: _20  and  _21
REMARK    9  A    between atoms: _20  and  _23
REMARK   10  A    between atoms: _23  and  _24
REMARK   11  A    between atoms: _27  and  _29
REMARK   12  A    between atoms: _29  and  _30
REMARK   13  A    between atoms: _29  and  _32
REMARK   14  A    between atoms: _32  and  _33
REMARK   15  A    between atoms: _36  and  _38
REMARK   16  A    between atoms: _38  and  _39
REMARK   17  A    between atoms: _38  and  _41
REMARK   18  A    between atoms: _41  and  _42
REMARK   19  A    between atoms: _45  and  _47
REMARK   20  A    between atoms: _47  and  _48
REMARK   21  A    between atoms: _47  and  _50
REMARK   22  A    between atoms: _50  and  _51
REMARK   23  A    between atoms: _54  and  _56
REMARK   24  A    between atoms: _56  and  _57
REMARK   25  A    between atoms: _59  and  _61
REMARK   26  A    between atoms: _61  and  _62
REMARK   27  A    between atoms: _65  and  _67
REMARK   28  A    between atoms: _67  and  _68
REMARK   29  A    between atoms: _67  and  _70
REMARK   30  A    between atoms: _70  and  _71
REMARK   31  A    between atoms: _74  and  _76
REMARK   32  A    between atoms: _76  and  _77
REMARK   33  A    between atoms: _76  and  _79
REMARK   34  A    between atoms: _79  and  _80
REMARK   35  A    between atoms: _83  and  _85
REMARK   36  A    between atoms: _85  and  _86
REMARK   37  A    between atoms: _85  and  _88
REMARK   38  A    between atoms: _88  and  _89
REMARK   39  A    between atoms: _92  and  _94
REMARK   40  A    between atoms: _94  and  _95
REMARK   41  A    between atoms: _94  and  _97
REMARK   42  A    between atoms: _100  and  _102
REMARK   43  A    between atoms: _102  and  _103
REMARK   44  A    between atoms: _102  and  _105
REMARK   45  A    between atoms: _105  and  _106
REMARK   46  A    between atoms: _109  and  _111
REMARK   47  A    between atoms: _111  and  _112
REMARK   48  A    between atoms: _114  and  _116
REMARK   49  A    between atoms: _116  and  _117
REMARK   50  A    between atoms: _119  and  _121
REMARK   51  A    between atoms: _121  and  _122
REMARK   52  A    between atoms: _121  and  _124
REMARK   53  A    between atoms: _124  and  _125
REMARK   54  A    between atoms: _128  and  _130
REMARK   55  A    between atoms: _130  and  _131
REMARK   56  A    between atoms: _133  and  _135
REMARK   57  A    between atoms: _135  and  _136
REMARK   58  A    between atoms: _138  and  _140
REMARK   59  A    between atoms: _140  and  _141
REMARK   60  A    between atoms: _140  and  _143
REMARK   61  A    between atoms: _143  and  _144
REMARK   62  A    between atoms: _150  and  _152
REMARK   63  A    between atoms: _152  and  _153
REMARK   64  A    between atoms: _152  and  _155
REMARK   65  A    between atoms: _155  and  _156
REMARK   66  A    between atoms: _159  and  _161
REMARK   67  A    between atoms: _161  and  _162
REMARK   68  A    between atoms: _161  and  _164
REMARK   69  A    between atoms: _164  and  _165
REMARK   70  A    between atoms: _168  and  _170
REMARK   71  A    between atoms: _170  and  _171
REMARK   72  A    between atoms: _170  and  _173
REMARK   73  A    between atoms: _173  and  _174
REMARK   74  A    between atoms: _178  and  _179
REMARK   75  A    between atoms: _184  and  _186
REMARK   76  A    between atoms: _186  and  _187
REMARK   77  A    between atoms: _186  and  _189
REMARK   78  A    between atoms: _192  and  _194
REMARK   79  A    between atoms: _194  and  _195
REMARK   80  A    between atoms: _194  and  _197
REMARK   81  A    between atoms: _197  and  _198
REMARK   82  A    between atoms: _203  and  _205
REMARK   83  A    between atoms: _205  and  _206
REMARK   84  A    between atoms: _205  and  _208
REMARK   85  A    between atoms: _208  and  _209
REMARK   86  A    between atoms: _212  and  _214
REMARK   87  A    between atoms: _214  and  _215
REMARK   88  A    between atoms: _217  and  _219
REMARK   89  A    between atoms: _219  and  _220
REMARK   90  A    between atoms: _219  and  _222
REMARK   91  A    between atoms: _222  and  _223
REMARK   92  A    between atoms: _223  and  _224
REMARK   93  A    between atoms: _224  and  _225
REMARK   94  A    between atoms: _234  and  _236
REMARK   95  A    between atoms: _236  and  _237
REMARK   96  A    between atoms: _236  and  _239
REMARK   97  A    between atoms: _239  and  _240
REMARK   98  A    between atoms: _245  and  _247
REMARK   99  A    between atoms: _247  and  _248
REMARK  100  A    between atoms: _247  and  _250
REMARK  101  A    between atoms: _250  and  _251
REMARK  102  A    between atoms: _251  and  _252
REMARK  103  A    between atoms: _252  and  _253
REMARK  104  A    between atoms: _262  and  _264
REMARK  105  A    between atoms: _264  and  _265
REMARK  106  A    between atoms: _264  and  _267
REMARK  107  A    between atoms: _267  and  _268
REMARK  108  A    between atoms: _271  and  _273
REMARK  109  A    between atoms: _273  and  _274
REMARK  110  A    between atoms: _273  and  _276
REMARK  111  A    between atoms: _276  and  _277
REMARK  112  A    between atoms: _280  and  _282
REMARK  113  A    between atoms: _282  and  _283
REMARK  114  A    between atoms: _282  and  _285
REMARK  115  A    between atoms: _285  and  _286
REMARK  116  A    between atoms: _289  and  _291
REMARK  117  A    between atoms: _291  and  _292
REMARK  118  A    between atoms: _291  and  _294
REMARK  119  A    between atoms: _294  and  _295
REMARK  120  A    between atoms: _298  and  _300
REMARK  121  A    between atoms: _300  and  _301
REMARK  122  A    between atoms: _303  and  _305
REMARK  123  A    between atoms: _305  and  _306
REMARK  124  A    between atoms: _309  and  _311
REMARK  125  A    between atoms: _311  and  _312
REMARK  126  A    between atoms: _311  and  _314
REMARK  127  A    between atoms: _314  and  _315
REMARK  128  A    between atoms: _318  and  _320
REMARK  129  A    between atoms: _320  and  _321
REMARK  130  A    between atoms: _320  and  _323
REMARK  131  A    between atoms: _323  and  _324
REMARK  132  A    between atoms: _327  and  _329
REMARK  133  A    between atoms: _329  and  _330
REMARK  134  A    between atoms: _329  and  _332
REMARK  135  A    between atoms: _332  and  _333
REMARK  136  A    between atoms: _336  and  _338
REMARK  137  A    between atoms: _338  and  _339
REMARK  138  A    between atoms: _338  and  _341
REMARK  139  A    between atoms: _344  and  _346
REMARK  140  A    between atoms: _346  and  _347
REMARK  141  A    between atoms: _346  and  _349
REMARK  142  A    between atoms: _349  and  _350
REMARK  143  A    between atoms: _350  and  _351
REMARK  144  A    between atoms: _351  and  _352
REMARK  145  A    between atoms: _352  and  _353
REMARK  146  A    between atoms: _357  and  _359
REMARK  147  A    between atoms: _359  and  _360
REMARK  148  A    between atoms: _359  and  _362
REMARK  149  A    between atoms: _362  and  _363
REMARK  150  A    between atoms: _363  and  _364
REMARK  151  A    between atoms: _366  and  _368
REMARK  152  A    between atoms: _368  and  _369
REMARK  153  A    between atoms: _368  and  _371
REMARK  154  A    between atoms: _371  and  _372
REMARK  155  A    between atoms: _375  and  _377
REMARK  156  A    between atoms: _377  and  _378
REMARK  157  A    between atoms: _380  and  _382
REMARK  158  A    between atoms: _382  and  _383
REMARK  159  A    between atoms: _385  and  _387
REMARK  160  A    between atoms: _387  and  _388
REMARK  161  A    between atoms: _387  and  _390
REMARK  162  A    between atoms: _390  and  _391
REMARK  163  A    between atoms: _394  and  _396
REMARK  164  A    between atoms: _396  and  _397
REMARK  165  A    between atoms: _399  and  _401
REMARK  166  A    between atoms: _401  and  _402
REMARK  167  A    between atoms: _404  and  _406
REMARK  168  A    between atoms: _406  and  _407
REMARK  169  A    between atoms: _406  and  _409
REMARK  170  A    between atoms: _409  and  _410
REMARK  171  A    between atoms: _416  and  _418
REMARK  172  A    between atoms: _418  and  _419
REMARK  173  A    between atoms: _418  and  _421
REMARK  174  A    between atoms: _421  and  _422
REMARK  175  A    between atoms: _425  and  _427
REMARK  176  A    between atoms: _427  and  _428
REMARK  177  A    between atoms: _427  and  _430
REMARK  178  A    between atoms: _430  and  _431
REMARK  179  A    between atoms: _435  and  _436
REMARK  180  A    between atoms: _441  and  _443
REMARK  181  A    between atoms: _443  and  _444
REMARK  182  A    between atoms: _443  and  _446
REMARK  183  A    between atoms: _446  and  _447
REMARK  184  A    between atoms: _451  and  _452
REMARK  185  A    between atoms: _457  and  _459
REMARK  186  A    between atoms: _459  and  _460
REMARK  187  A    between atoms: _459  and  _462
REMARK  188  A    between atoms: _465  and  _467
REMARK  189  A    between atoms: _467  and  _468
REMARK  190  A    between atoms: _467  and  _470
REMARK  191  A    between atoms: _470  and  _471
REMARK  192  A    between atoms: _476  and  _478
REMARK  193  A    between atoms: _478  and  _479
REMARK  194  A    between atoms: _478  and  _481
REMARK  195  A    between atoms: _481  and  _482
REMARK  196  A    between atoms: _485  and  _487
REMARK  197  A    between atoms: _487  and  _488
REMARK  198  A    between atoms: _487  and  _490
REMARK  199  A    between atoms: _490  and  _491
REMARK  200  A    between atoms: _494  and  _496
REMARK  201  A    between atoms: _496  and  _497
REMARK  202  A    between atoms: _499  and  _501
REMARK  203  A    between atoms: _501  and  _502
REMARK  204  A    between atoms: _501  and  _504
REMARK  205  A    between atoms: _504  and  _505
REMARK  206  A    between atoms: _505  and  _506
REMARK  207  A    between atoms: _506  and  _507
REMARK  208  A    between atoms: _516  and  _518
REMARK  209  A    between atoms: _518  and  _519
REMARK  210  A    between atoms: _518  and  _521
REMARK  211  A    between atoms: _521  and  _522
REMARK                            x       y       z     vdW  Elec       q    Type
REMARK                         _______ _______ _______ _____ _____    ______ ____
ROOT
ATOM      1  O   HOH     1      14.900  20.765  11.139  0.00  0.00    +0.000 OA
ENDROOT
TORSDOF 0
REMARK  Name = ../refined-set-2016/4djr/4djr_pocket.pdb
REMARK  211 active torsions:
REMARK  status: ('A' for Active; 'I' for Inactive)
REMARK    1  A    between atoms: _1  and  _3
REMARK    2  A    between atoms: _3  and  _4
REMARK    3  A    between atoms: _3  and  _6
REMARK    4  A    between atoms: _6  and  _7
REMARK    5  A    between atoms: _7  and  _8
REMARK    6  A    between atoms: _8  and  _9
REMARK    7  A    between atoms: _18  and  _20
REMARK    8  A    between atoms: _20  and  _21
REMARK    9  A    between atoms: _20  and  _23
REMARK   10  A    between atoms: _23  and  _24
REMARK   11  A    between atoms: _27  and  _29
REMARK   12  A    between atoms: _29  and  _30
REMARK   13  A    between atoms: _29  and  _32
REMARK   14  A    between atoms: _32  and  _33
REMARK   15  A    between atoms: _36  and  _38
REMARK   16  A    between atoms: _38  and  _39
REMARK   17  A    between atoms: _38  and  _41
REMARK   18  A    between atoms: _41  and  _42
REMARK   19  A    between atoms: _45  and  _47
REMARK   20  A    between atoms: _47  and  _48
REMARK   21  A    between atoms: _47  and  _50
REMARK   22  A    between atoms: _50  and  _51
REMARK   23  A    between atoms: _54  and  _56
REMARK   24  A    between atoms: _56  and  _57
REMARK   25  A    between atoms: _59  and  _61
REMARK   26  A    between atoms: _61  and  _62
REMARK   27  A    between atoms: _65  and  _67
REMARK   28  A    between atoms: _67  and  _68
REMARK   29  A    between atoms: _67  and  _70
REMARK   30  A    between atoms: _70  and  _71
REMARK   31  A    between atoms: _74  and  _76
REMARK   32  A    between atoms: _76  and  _77
REMARK   33  A    between atoms: _76  and  _79
REMARK   34  A    between atoms: _79  and  _80
REMARK   35  A    between atoms: _83  and  _85
REMARK   36  A    between atoms: _85  and  _86
REMARK   37  A    between atoms: _85  and  _88
REMARK   38  A    between atoms: _88  and  _89
REMARK   39  A    between atoms: _92  and  _94
REMARK   40  A    between atoms: _94  and  _95
REMARK   41  A    between atoms: _94  and  _97
REMARK   42  A    between atoms: _100  and  _102
REMARK   43  A    between atoms: _102  and  _103
REMARK   44  A    between atoms: _102  and  _105
REMARK   45  A    between atoms: _105  and  _106
REMARK   46  A    between atoms: _109  and  _111
REMARK   47  A    between atoms: _111  and  _112
REMARK   48  A    between atoms: _114  and  _116
REMARK   49  A    between atoms: _116  and  _117
REMARK   50  A    between atoms: _119  and  _121
REMARK   51  A    between atoms: _121  and  _122
REMARK   52  A    between atoms: _121  and  _124
REMARK   53  A    between atoms: _124  and  _125
REMARK   54  A    between atoms: _128  and  _130
REMARK   55  A    between atoms: _130  and  _131
REMARK   56  A    between atoms: _133  and  _135
REMARK   57  A    between atoms: _135  and  _136
REMARK   58  A    between atoms: _138  and  _140
REMARK   59  A    between atoms: _140  and  _141
REMARK   60  A    between atoms: _140  and  _143
REMARK   61  A    between atoms: _143  and  _144
REMARK   62  A    between atoms: _150  and  _152
REMARK   63  A    between atoms: _152  and  _153
REMARK   64  A    between atoms: _152  and  _155
REMARK   65  A    between atoms: _155  and  _156
REMARK   66  A    between atoms: _159  and  _161
REMARK   67  A    between atoms: _161  and  _162
REMARK   68  A    between atoms: _161  and  _164
REMARK   69  A    between atoms: _164  and  _165
REMARK   70  A    between atoms: _168  and  _170
REMARK   71  A    between atoms: _170  and  _171
REMARK   72  A    between atoms: _170  and  _173
REMARK   73  A    between atoms: _173  and  _174
REMARK   74  A    between atoms: _178  and  _179
REMARK   75  A    between atoms: _184  and  _186
REMARK   76  A    between atoms: _186  and  _187
REMARK   77  A    between atoms: _186  and  _189
REMARK   78  A    between atoms: _192  and  _194
REMARK   79  A    between atoms: _194  and  _195
REMARK   80  A    between atoms: _194  and  _197
REMARK   81  A    between atoms: _197  and  _198
REMARK   82  A    between atoms: _203  and  _205
REMARK   83  A    between atoms: _205  and  _206
REMARK   84  A    between atoms: _205  and  _208
REMARK   85  A    between atoms: _208  and  _209
REMARK   86  A    between atoms: _212  and  _214
REMARK   87  A    between atoms: _214  and  _215
REMARK   88  A    between atoms: _217  and  _219
REMARK   89  A    between atoms: _219  and  _220
REMARK   90  A    between atoms: _219  and  _222
REMARK   91  A    between atoms: _222  and  _223
REMARK   92  A    between atoms: _223  and  _224
REMARK   93  A    between atoms: _224  and  _225
REMARK   94  A    between atoms: _234  and  _236
REMARK   95  A    between atoms: _236  and  _237
REMARK   96  A    between atoms: _236  and  _239
REMARK   97  A    between atoms: _239  and  _240
REMARK   98  A    between atoms: _245  and  _247
REMARK   99  A    between atoms: _247  and  _248
REMARK  100  A    between atoms: _247  and  _250
REMARK  101  A    between atoms: _250  and  _251
REMARK  102  A    between atoms: _251  and  _252
REMARK  103  A    between atoms: _252  and  _253
REMARK  104  A    between atoms: _262  and  _264
REMARK  105  A    between atoms: _264  and  _265
REMARK  106  A    between atoms: _264  and  _267
REMARK  107  A    between atoms: _267  and  _268
REMARK  108  A    between atoms: _271  and  _273
REMARK  109  A    between atoms: _273  and  _274
REMARK  110  A    between atoms: _273  and  _276
REMARK  111  A    between atoms: _276  and  _277
REMARK  112  A    between atoms: _280  and  _282
REMARK  113  A    between atoms: _282  and  _283
REMARK  114  A    between atoms: _282  and  _285
REMARK  115  A    between atoms: _285  and  _286
REMARK  116  A    between atoms: _289  and  _291
REMARK  117  A    between atoms: _291  and  _292
REMARK  118  A    between atoms: _291  and  _294
REMARK  119  A    between atoms: _294  and  _295
REMARK  120  A    between atoms: _298  and  _300
REMARK  121  A    between atoms: _300  and  _301
REMARK  122  A    between atoms: _303  and  _305
REMARK  123  A    between atoms: _305  and  _306
REMARK  124  A    between atoms: _309  and  _311
REMARK  125  A    between atoms: _311  and  _312
REMARK  126  A    between atoms: _311  and  _314
REMARK  127  A    between atoms: _314  and  _315
REMARK  128  A    between atoms: _318  and  _320
REMARK  129  A    between atoms: _320  and  _321
REMARK  130  A    between atoms: _320  and  _323
REMARK  131  A    between atoms: _323  and  _324
REMARK  132  A    between atoms: _327  and  _329
REMARK  133  A    between atoms: _329  and  _330
REMARK  134  A    between atoms: _329  and  _332
REMARK  135  A    between atoms: _332  and  _333
REMARK  136  A    between atoms: _336  and  _338
REMARK  137  A    between atoms: _338  and  _339
REMARK  138  A    between atoms: _338  and  _341
REMARK  139  A    between atoms: _344  and  _346
REMARK  140  A    between atoms: _346  and  _347
REMARK  141  A    between atoms: _346  and  _349
REMARK  142  A    between atoms: _349  and  _350
REMARK  143  A    between atoms: _350  and  _351
REMARK  144  A    between atoms: _351  and  _352
REMARK  145  A    between atoms: _352  and  _353
REMARK  146  A    between atoms: _357  and  _359
REMARK  147  A    between atoms: _359  and  _360
REMARK  148  A    between atoms: _359  and  _362
REMARK  149  A    between atoms: _362  and  _363
REMARK  150  A    between atoms: _363  and  _364
REMARK  151  A    between atoms: _366  and  _368
REMARK  152  A    between atoms: _368  and  _369
REMARK  153  A    between atoms: _368  and  _371
REMARK  154  A    between atoms: _371  and  _372
REMARK  155  A    between atoms: _375  and  _377
REMARK  156  A    between atoms: _377  and  _378
REMARK  157  A    between atoms: _380  and  _382
REMARK  158  A    between atoms: _382  and  _383
REMARK  159  A    between atoms: _385  and  _387
REMARK  160  A    between atoms: _387  and  _388
REMARK  161  A    between atoms: _387  and  _390
REMARK  162  A    between atoms: _390  and  _391
REMARK  163  A    between atoms: _394  and  _396
REMARK  164  A    between atoms: _396  and  _397
REMARK  165  A    between atoms: _399  and  _401
REMARK  166  A    between atoms: _401  and  _402
REMARK  167  A    between atoms: _404  and  _406
REMARK  168  A    between atoms: _406  and  _407
REMARK  169  A    between atoms: _406  and  _409
REMARK  170  A    between atoms: _409  and  _410
REMARK  171  A    between atoms: _416  and  _418
REMARK  172  A    between atoms: _418  and  _419
REMARK  173  A    between atoms: _418  and  _421
REMARK  174  A    between atoms: _421  and  _422
REMARK  175  A    between atoms: _425  and  _427
REMARK  176  A    between atoms: _427  and  _428
REMARK  177  A    between atoms: _427  and  _430
REMARK  178  A    between atoms: _430  and  _431
REMARK  179  A    between atoms: _435  and  _436
REMARK  180  A    between atoms: _441  and  _443
REMARK  181  A    between atoms: _443  and  _444
REMARK  182  A    between atoms: _443  and  _446
REMARK  183  A    between atoms: _446  and  _447
REMARK  184  A    between atoms: _451  and  _452
REMARK  185  A    between atoms: _457  and  _459
REMARK  186  A    between atoms: _459  and  _460
REMARK  187  A    between atoms: _459  and  _462
REMARK  188  A    between atoms: _465  and  _467
REMARK  189  A    between atoms: _467  and  _468
REMARK  190  A    between atoms: _467  and  _470
REMARK  191  A    between atoms: _470  and  _471
REMARK  192  A    between atoms: _476  and  _478
REMARK  193  A    between atoms: _478  and  _479
REMARK  194  A    between atoms: _478  and  _481
REMARK  195  A    between atoms: _481  and  _482
REMARK  196  A    between atoms: _485  and  _487
REMARK  197  A    between atoms: _487  and  _488
REMARK  198  A    between atoms: _487  and  _490
REMARK  199  A    between atoms: _490  and  _491
REMARK  200  A    between atoms: _494  and  _496
REMARK  201  A    between atoms: _496  and  _497
REMARK  202  A    between atoms: _499  and  _501
REMARK  203  A    between atoms: _501  and  _502
REMARK  204  A    between atoms: _501  and  _504
REMARK  205  A    between atoms: _504  and  _505
REMARK  206  A    between atoms: _505  and  _506
REMARK  207  A    between atoms: _506  and  _507
REMARK  208  A    between atoms: _516  and  _518
REMARK  209  A    between atoms: _518  and  _519
REMARK  210  A    between atoms: _518  and  _521
REMARK  211  A    between atoms: _521  and  _522
REMARK                            x       y       z     vdW  Elec       q    Type
REMARK                         _______ _______ _______ _____ _____    ______ ____
ROOT
ATOM      1  O   HOH     1      17.168  22.537  11.313  0.00  0.00    +0.000 OA
ENDROOT
TORSDOF 0
REMARK  Name = ../refined-set-2016/4djr/4djr_pocket.pdb
REMARK  211 active torsions:
REMARK  status: ('A' for Active; 'I' for Inactive)
REMARK    1  A    between atoms: _1  and  _3
REMARK    2  A    between atoms: _3  and  _4
REMARK    3  A    between atoms: _3  and  _6
REMARK    4  A    between atoms: _6  and  _7
REMARK    5  A    between atoms: _7  and  _8
REMARK    6  A    between atoms: _8  and  _9
REMARK    7  A    between atoms: _18  and  _20
REMARK    8  A    between atoms: _20  and  _21
REMARK    9  A    between atoms: _20  and  _23
REMARK   10  A    between atoms: _23  and  _24
REMARK   11  A    between atoms: _27  and  _29
REMARK   12  A    between atoms: _29  and  _30
REMARK   13  A    between atoms: _29  and  _32
REMARK   14  A    between atoms: _32  and  _33
REMARK   15  A    between atoms: _36  and  _38
REMARK   16  A    between atoms: _38  and  _39
REMARK   17  A    between atoms: _38  and  _41
REMARK   18  A    between atoms: _41  and  _42
REMARK   19  A    between atoms: _45  and  _47
REMARK   20  A    between atoms: _47  and  _48
REMARK   21  A    between atoms: _47  and  _50
REMARK   22  A    between atoms: _50  and  _51
REMARK   23  A    between atoms: _54  and  _56
REMARK   24  A    between atoms: _56  and  _57
REMARK   25  A    between atoms: _59  and  _61
REMARK   26  A    between atoms: _61  and  _62
REMARK   27  A    between atoms: _65  and  _67
REMARK   28  A    between atoms: _67  and  _68
REMARK   29  A    between atoms: _67  and  _70
REMARK   30  A    between atoms: _70  and  _71
REMARK   31  A    between atoms: _74  and  _76
REMARK   32  A    between atoms: _76  and  _77
REMARK   33  A    between atoms: _76  and  _79
REMARK   34  A    between atoms: _79  and  _80
REMARK   35  A    between atoms: _83  and  _85
REMARK   36  A    between atoms: _85  and  _86
REMARK   37  A    between atoms: _85  and  _88
REMARK   38  A    between atoms: _88  and  _89
REMARK   39  A    between atoms: _92  and  _94
REMARK   40  A    between atoms: _94  and  _95
REMARK   41  A    between atoms: _94  and  _97
REMARK   42  A    between atoms: _100  and  _102
REMARK   43  A    between atoms: _102  and  _103
REMARK   44  A    between atoms: _102  and  _105
REMARK   45  A    between atoms: _105  and  _106
REMARK   46  A    between atoms: _109  and  _111
REMARK   47  A    between atoms: _111  and  _112
REMARK   48  A    between atoms: _114  and  _116
REMARK   49  A    between atoms: _116  and  _117
REMARK   50  A    between atoms: _119  and  _121
REMARK   51  A    between atoms: _121  and  _122
REMARK   52  A    between atoms: _121  and  _124
REMARK   53  A    between atoms: _124  and  _125
REMARK   54  A    between atoms: _128  and  _130
REMARK   55  A    between atoms: _130  and  _131
REMARK   56  A    between atoms: _133  and  _135
REMARK   57  A    between atoms: _135  and  _136
REMARK   58  A    between atoms: _138  and  _140
REMARK   59  A    between atoms: _140  and  _141
REMARK   60  A    between atoms: _140  and  _143
REMARK   61  A    between atoms: _143  and  _144
REMARK   62  A    between atoms: _150  and  _152
REMARK   63  A    between atoms: _152  and  _153
REMARK   64  A    between atoms: _152  and  _155
REMARK   65  A    between atoms: _155  and  _156
REMARK   66  A    between atoms: _159  and  _161
REMARK   67  A    between atoms: _161  and  _162
REMARK   68  A    between atoms: _161  and  _164
REMARK   69  A    between atoms: _164  and  _165
REMARK   70  A    between atoms: _168  and  _170
REMARK   71  A    between atoms: _170  and  _171
REMARK   72  A    between atoms: _170  and  _173
REMARK   73  A    between atoms: _173  and  _174
REMARK   74  A    between atoms: _178  and  _179
REMARK   75  A    between atoms: _184  and  _186
REMARK   76  A    between atoms: _186  and  _187
REMARK   77  A    between atoms: _186  and  _189
REMARK   78  A    between atoms: _192  and  _194
REMARK   79  A    between atoms: _194  and  _195
REMARK   80  A    between atoms: _194  and  _197
REMARK   81  A    between atoms: _197  and  _198
REMARK   82  A    between atoms: _203  and  _205
REMARK   83  A    between atoms: _205  and  _206
REMARK   84  A    between atoms: _205  and  _208
REMARK   85  A    between atoms: _208  and  _209
REMARK   86  A    between atoms: _212  and  _214
REMARK   87  A    between atoms: _214  and  _215
REMARK   88  A    between atoms: _217  and  _219
REMARK   89  A    between atoms: _219  and  _220
REMARK   90  A    between atoms: _219  and  _222
REMARK   91  A    between atoms: _222  and  _223
REMARK   92  A    between atoms: _223  and  _224
REMARK   93  A    between atoms: _224  and  _225
REMARK   94  A    between atoms: _234  and  _236
REMARK   95  A    between atoms: _236  and  _237
REMARK   96  A    between atoms: _236  and  _239
REMARK   97  A    between atoms: _239  and  _240
REMARK   98  A    between atoms: _245  and  _247
REMARK   99  A    between atoms: _247  and  _248
REMARK  100  A    between atoms: _247  and  _250
REMARK  101  A    between atoms: _250  and  _251
REMARK  102  A    between atoms: _251  and  _252
REMARK  103  A    between atoms: _252  and  _253
REMARK  104  A    between atoms: _262  and  _264
REMARK  105  A    between atoms: _264  and  _265
REMARK  106  A    between atoms: _264  and  _267
REMARK  107  A    between atoms: _267  and  _268
REMARK  108  A    between atoms: _271  and  _273
REMARK  109  A    between atoms: _273  and  _274
REMARK  110  A    between atoms: _273  and  _276
REMARK  111  A    between atoms: _276  and  _277
REMARK  112  A    between atoms: _280  and  _282
REMARK  113  A    between atoms: _282  and  _283
REMARK  114  A    between atoms: _282  and  _285
REMARK  115  A    between atoms: _285  and  _286
REMARK  116  A    between atoms: _289  and  _291
REMARK  117  A    between atoms: _291  and  _292
REMARK  118  A    between atoms: _291  and  _294
REMARK  119  A    between atoms: _294  and  _295
REMARK  120  A    between atoms: _298  and  _300
REMARK  121  A    between atoms: _300  and  _301
REMARK  122  A    between atoms: _303  and  _305
REMARK  123  A    between atoms: _305  and  _306
REMARK  124  A    between atoms: _309  and  _311
REMARK  125  A    between atoms: _311  and  _312
REMARK  126  A    between atoms: _311  and  _314
REMARK  127  A    between atoms: _314  and  _315
REMARK  128  A    between atoms: _318  and  _320
REMARK  129  A    between atoms: _320  and  _321
REMARK  130  A    between atoms: _320  and  _323
REMARK  131  A    between atoms: _323  and  _324
REMARK  132  A    between atoms: _327  and  _329
REMARK  133  A    between atoms: _329  and  _330
REMARK  134  A    between atoms: _329  and  _332
REMARK  135  A    between atoms: _332  and  _333
REMARK  136  A    between atoms: _336  and  _338
REMARK  137  A    between atoms: _338  and  _339
REMARK  138  A    between atoms: _338  and  _341
REMARK  139  A    between atoms: _344  and  _346
REMARK  140  A    between atoms: _346  and  _347
REMARK  141  A    between atoms: _346  and  _349
REMARK  142  A    between atoms: _349  and  _350
REMARK  143  A    between atoms: _350  and  _351
REMARK  144  A    between atoms: _351  and  _352
REMARK  145  A    between atoms: _352  and  _353
REMARK  146  A    between atoms: _357  and  _359
REMARK  147  A    between atoms: _359  and  _360
REMARK  148  A    between atoms: _359  and  _362
REMARK  149  A    between atoms: _362  and  _363
REMARK  150  A    between atoms: _363  and  _364
REMARK  151  A    between atoms: _366  and  _368
REMARK  152  A    between atoms: _368  and  _369
REMARK  153  A    between atoms: _368  and  _371
REMARK  154  A    between atoms: _371  and  _372
REMARK  155  A    between atoms: _375  and  _377
REMARK  156  A    between atoms: _377  and  _378
REMARK  157  A    between atoms: _380  and  _382
REMARK  158  A    between atoms: _382  and  _383
REMARK  159  A    between atoms: _385  and  _387
REMARK  160  A    between atoms: _387  and  _388
REMARK  161  A    between atoms: _387  and  _390
REMARK  162  A    between atoms: _390  and  _391
REMARK  163  A    between atoms: _394  and  _396
REMARK  164  A    between atoms: _396  and  _397
REMARK  165  A    between atoms: _399  and  _401
REMARK  166  A    between atoms: _401  and  _402
REMARK  167  A    between atoms: _404  and  _406
REMARK  168  A    between atoms: _406  and  _407
REMARK  169  A    between atoms: _406  and  _409
REMARK  170  A    between atoms: _409  and  _410
REMARK  171  A    between atoms: _416  and  _418
REMARK  172  A    between atoms: _418  and  _419
REMARK  173  A    between atoms: _418  and  _421
REMARK  174  A    between atoms: _421  and  _422
REMARK  175  A    between atoms: _425  and  _427
REMARK  176  A    between atoms: _427  and  _428
REMARK  177  A    between atoms: _427  and  _430
REMARK  178  A    between atoms: _430  and  _431
REMARK  179  A    between atoms: _435  and  _436
REMARK  180  A    between atoms: _441  and  _443
REMARK  181  A    between atoms: _443  and  _444
REMARK  182  A    between atoms: _443  and  _446
REMARK  183  A    between atoms: _446  and  _447
REMARK  184  A    between atoms: _451  and  _452
REMARK  185  A    between atoms: _457  and  _459
REMARK  186  A    between atoms: _459  and  _460
REMARK  187  A    between atoms: _459  and  _462
REMARK  188  A    between atoms: _465  and  _467
REMARK  189  A    between atoms: _467  and  _468
REMARK  190  A    between atoms: _467  and  _470
REMARK  191  A    between atoms: _470  and  _471
REMARK  192  A    between atoms: _476  and  _478
REMARK  193  A    between atoms: _478  and  _479
REMARK  194  A    between atoms: _478  and  _481
REMARK  195  A    between atoms: _481  and  _482
REMARK  196  A    between atoms: _485  and  _487
REMARK  197  A    between atoms: _487  and  _488
REMARK  198  A    between atoms: _487  and  _490
REMARK  199  A    between atoms: _490  and  _491
REMARK  200  A    between atoms: _494  and  _496
REMARK  201  A    between atoms: _496  and  _497
REMARK  202  A    between atoms: _499  and  _501
REMARK  203  A    between atoms: _501  and  _502
REMARK  204  A    between atoms: _501  and  _504
REMARK  205  A    between atoms: _504  and  _505
REMARK  206  A    between atoms: _505  and  _506
REMARK  207  A    between atoms: _506  and  _507
REMARK  208  A    between atoms: _516  and  _518
REMARK  209  A    between atoms: _518  and  _519
REMARK  210  A    between atoms: _518  and  _521
REMARK  211  A    between atoms: _521  and  _522
REMARK                            x       y       z     vdW  Elec       q    Type
REMARK                         _______ _______ _______ _____ _____    ______ ____
ROOT
ATOM      1  O   HOH     1      12.159  20.801  10.899  0.00  0.00    +0.000 OA
ENDROOT
TORSDOF 0
REMARK  Name = ../refined-set-2016/4djr/4djr_pocket.pdb
REMARK  211 active torsions:
REMARK  status: ('A' for Active; 'I' for Inactive)
REMARK    1  A    between atoms: _1  and  _3
REMARK    2  A    between atoms: _3  and  _4
REMARK    3  A    between atoms: _3  and  _6
REMARK    4  A    between atoms: _6  and  _7
REMARK    5  A    between atoms: _7  and  _8
REMARK    6  A    between atoms: _8  and  _9
REMARK    7  A    between atoms: _18  and  _20
REMARK    8  A    between atoms: _20  and  _21
REMARK    9  A    between atoms: _20  and  _23
REMARK   10  A    between atoms: _23  and  _24
REMARK   11  A    between atoms: _27  and  _29
REMARK   12  A    between atoms: _29  and  _30
REMARK   13  A    between atoms: _29  and  _32
REMARK   14  A    between atoms: _32  and  _33
REMARK   15  A    between atoms: _36  and  _38
REMARK   16  A    between atoms: _38  and  _39
REMARK   17  A    between atoms: _38  and  _41
REMARK   18  A    between atoms: _41  and  _42
REMARK   19  A    between atoms: _45  and  _47
REMARK   20  A    between atoms: _47  and  _48
REMARK   21  A    between atoms: _47  and  _50
REMARK   22  A    between atoms: _50  and  _51
REMARK   23  A    between atoms: _54  and  _56
REMARK   24  A    between atoms: _56  and  _57
REMARK   25  A    between atoms: _59  and  _61
REMARK   26  A    between atoms: _61  and  _62
REMARK   27  A    between atoms: _65  and  _67
REMARK   28  A    between atoms: _67  and  _68
REMARK   29  A    between atoms: _67  and  _70
REMARK   30  A    between atoms: _70  and  _71
REMARK   31  A    between atoms: _74  and  _76
REMARK   32  A    between atoms: _76  and  _77
REMARK   33  A    between atoms: _76  and  _79
REMARK   34  A    between atoms: _79  and  _80
REMARK   35  A    between atoms: _83  and  _85
REMARK   36  A    between atoms: _85  and  _86
REMARK   37  A    between atoms: _85  and  _88
REMARK   38  A    between atoms: _88  and  _89
REMARK   39  A    between atoms: _92  and  _94
REMARK   40  A    between atoms: _94  and  _95
REMARK   41  A    between atoms: _94  and  _97
REMARK   42  A    between atoms: _100  and  _102
REMARK   43  A    between atoms: _102  and  _103
REMARK   44  A    between atoms: _102  and  _105
REMARK   45  A    between atoms: _105  and  _106
REMARK   46  A    between atoms: _109  and  _111
REMARK   47  A    between atoms: _111  and  _112
REMARK   48  A    between atoms: _114  and  _116
REMARK   49  A    between atoms: _116  and  _117
REMARK   50  A    between atoms: _119  and  _121
REMARK   51  A    between atoms: _121  and  _122
REMARK   52  A    between atoms: _121  and  _124
REMARK   53  A    between atoms: _124  and  _125
REMARK   54  A    between atoms: _128  and  _130
REMARK   55  A    between atoms: _130  and  _131
REMARK   56  A    between atoms: _133  and  _135
REMARK   57  A    between atoms: _135  and  _136
REMARK   58  A    between atoms: _138  and  _140
REMARK   59  A    between atoms: _140  and  _141
REMARK   60  A    between atoms: _140  and  _143
REMARK   61  A    between atoms: _143  and  _144
REMARK   62  A    between atoms: _150  and  _152
REMARK   63  A    between atoms: _152  and  _153
REMARK   64  A    between atoms: _152  and  _155
REMARK   65  A    between atoms: _155  and  _156
REMARK   66  A    between atoms: _159  and  _161
REMARK   67  A    between atoms: _161  and  _162
REMARK   68  A    between atoms: _161  and  _164
REMARK   69  A    between atoms: _164  and  _165
REMARK   70  A    between atoms: _168  and  _170
REMARK   71  A    between atoms: _170  and  _171
REMARK   72  A    between atoms: _170  and  _173
REMARK   73  A    between atoms: _173  and  _174
REMARK   74  A    between atoms: _178  and  _179
REMARK   75  A    between atoms: _184  and  _186
REMARK   76  A    between atoms: _186  and  _187
REMARK   77  A    between atoms: _186  and  _189
REMARK   78  A    between atoms: _192  and  _194
REMARK   79  A    between atoms: _194  and  _195
REMARK   80  A    between atoms: _194  and  _197
REMARK   81  A    between atoms: _197  and  _198
REMARK   82  A    between atoms: _203  and  _205
REMARK   83  A    between atoms: _205  and  _206
REMARK   84  A    between atoms: _205  and  _208
REMARK   85  A    between atoms: _208  and  _209
REMARK   86  A    between atoms: _212  and  _214
REMARK   87  A    between atoms: _214  and  _215
REMARK   88  A    between atoms: _217  and  _219
REMARK   89  A    between atoms: _219  and  _220
REMARK   90  A    between atoms: _219  and  _222
REMARK   91  A    between atoms: _222  and  _223
REMARK   92  A    between atoms: _223  and  _224
REMARK   93  A    between atoms: _224  and  _225
REMARK   94  A    between atoms: _234  and  _236
REMARK   95  A    between atoms: _236  and  _237
REMARK   96  A    between atoms: _236  and  _239
REMARK   97  A    between atoms: _239  and  _240
REMARK   98  A    between atoms: _245  and  _247
REMARK   99  A    between atoms: _247  and  _248
REMARK  100  A    between atoms: _247  and  _250
REMARK  101  A    between atoms: _250  and  _251
REMARK  102  A    between atoms: _251  and  _252
REMARK  103  A    between atoms: _252  and  _253
REMARK  104  A    between atoms: _262  and  _264
REMARK  105  A    between atoms: _264  and  _265
REMARK  106  A    between atoms: _264  and  _267
REMARK  107  A    between atoms: _267  and  _268
REMARK  108  A    between atoms: _271  and  _273
REMARK  109  A    between atoms: _273  and  _274
REMARK  110  A    between atoms: _273  and  _276
REMARK  111  A    between atoms: _276  and  _277
REMARK  112  A    between atoms: _280  and  _282
REMARK  113  A    between atoms: _282  and  _283
REMARK  114  A    between atoms: _282  and  _285
REMARK  115  A    between atoms: _285  and  _286
REMARK  116  A    between atoms: _289  and  _291
REMARK  117  A    between atoms: _291  and  _292
REMARK  118  A    between atoms: _291  and  _294
REMARK  119  A    between atoms: _294  and  _295
REMARK  120  A    between atoms: _298  and  _300
REMARK  121  A    between atoms: _300  and  _301
REMARK  122  A    between atoms: _303  and  _305
REMARK  123  A    between atoms: _305  and  _306
REMARK  124  A    between atoms: _309  and  _311
REMARK  125  A    between atoms: _311  and  _312
REMARK  126  A    between atoms: _311  and  _314
REMARK  127  A    between atoms: _314  and  _315
REMARK  128  A    between atoms: _318  and  _320
REMARK  129  A    between atoms: _320  and  _321
REMARK  130  A    between atoms: _320  and  _323
REMARK  131  A    between atoms: _323  and  _324
REMARK  132  A    between atoms: _327  and  _329
REMARK  133  A    between atoms: _329  and  _330
REMARK  134  A    between atoms: _329  and  _332
REMARK  135  A    between atoms: _332  and  _333
REMARK  136  A    between atoms: _336  and  _338
REMARK  137  A    between atoms: _338  and  _339
REMARK  138  A    between atoms: _338  and  _341
REMARK  139  A    between atoms: _344  and  _346
REMARK  140  A    between atoms: _346  and  _347
REMARK  141  A    between atoms: _346  and  _349
REMARK  142  A    between atoms: _349  and  _350
REMARK  143  A    between atoms: _350  and  _351
REMARK  144  A    between atoms: _351  and  _352
REMARK  145  A    between atoms: _352  and  _353
REMARK  146  A    between atoms: _357  and  _359
REMARK  147  A    between atoms: _359  and  _360
REMARK  148  A    between atoms: _359  and  _362
REMARK  149  A    between atoms: _362  and  _363
REMARK  150  A    between atoms: _363  and  _364
REMARK  151  A    between atoms: _366  and  _368
REMARK  152  A    between atoms: _368  and  _369
REMARK  153  A    between atoms: _368  and  _371
REMARK  154  A    between atoms: _371  and  _372
REMARK  155  A    between atoms: _375  and  _377
REMARK  156  A    between atoms: _377  and  _378
REMARK  157  A    between atoms: _380  and  _382
REMARK  158  A    between atoms: _382  and  _383
REMARK  159  A    between atoms: _385  and  _387
REMARK  160  A    between atoms: _387  and  _388
REMARK  161  A    between atoms: _387  and  _390
REMARK  162  A    between atoms: _390  and  _391
REMARK  163  A    between atoms: _394  and  _396
REMARK  164  A    between atoms: _396  and  _397
REMARK  165  A    between atoms: _399  and  _401
REMARK  166  A    between atoms: _401  and  _402
REMARK  167  A    between atoms: _404  and  _406
REMARK  168  A    between atoms: _406  and  _407
REMARK  169  A    between atoms: _406  and  _409
REMARK  170  A    between atoms: _409  and  _410
REMARK  171  A    between atoms: _416  and  _418
REMARK  172  A    between atoms: _418  and  _419
REMARK  173  A    between atoms: _418  and  _421
REMARK  174  A    between atoms: _421  and  _422
REMARK  175  A    between atoms: _425  and  _427
REMARK  176  A    between atoms: _427  and  _428
REMARK  177  A    between atoms: _427  and  _430
REMARK  178  A    between atoms: _430  and  _431
REMARK  179  A    between atoms: _435  and  _436
REMARK  180  A    between atoms: _441  and  _443
REMARK  181  A    between atoms: _443  and  _444
REMARK  182  A    between atoms: _443  and  _446
REMARK  183  A    between atoms: _446  and  _447
REMARK  184  A    between atoms: _451  and  _452
REMARK  185  A    between atoms: _457  and  _459
REMARK  186  A    between atoms: _459  and  _460
REMARK  187  A    between atoms: _459  and  _462
REMARK  188  A    between atoms: _465  and  _467
REMARK  189  A    between atoms: _467  and  _468
REMARK  190  A    between atoms: _467  and  _470
REMARK  191  A    between atoms: _470  and  _471
REMARK  192  A    between atoms: _476  and  _478
REMARK  193  A    between atoms: _478  and  _479
REMARK  194  A    between atoms: _478  and  _481
REMARK  195  A    between atoms: _481  and  _482
REMARK  196  A    between atoms: _485  and  _487
REMARK  197  A    between atoms: _487  and  _488
REMARK  198  A    between atoms: _487  and  _490
REMARK  199  A    between atoms: _490  and  _491
REMARK  200  A    between atoms: _494  and  _496
REMARK  201  A    between atoms: _496  and  _497
REMARK  202  A    between atoms: _499  and  _501
REMARK  203  A    between atoms: _501  and  _502
REMARK  204  A    between atoms: _501  and  _504
REMARK  205  A    between atoms: _504  and  _505
REMARK  206  A    between atoms: _505  and  _506
REMARK  207  A    between atoms: _506  and  _507
REMARK  208  A    between atoms: _516  and  _518
REMARK  209  A    between atoms: _518  and  _519
REMARK  210  A    between atoms: _518  and  _521
REMARK  211  A    between atoms: _521  and  _522
REMARK                            x       y       z     vdW  Elec       q    Type
REMARK                         _______ _______ _______ _____ _____    ______ ____
ROOT
ATOM      1  O   HOH     1      10.023  36.394  23.193  0.00  0.00    +0.000 OA
ENDROOT
TORSDOF 0
REMARK  Name = ../refined-set-2016/4djr/4djr_pocket.pdb
REMARK  211 active torsions:
REMARK  status: ('A' for Active; 'I' for Inactive)
REMARK    1  A    between atoms: _1  and  _3
REMARK    2  A    between atoms: _3  and  _4
REMARK    3  A    between atoms: _3  and  _6
REMARK    4  A    between atoms: _6  and  _7
REMARK    5  A    between atoms: _7  and  _8
REMARK    6  A    between atoms: _8  and  _9
REMARK    7  A    between atoms: _18  and  _20
REMARK    8  A    between atoms: _20  and  _21
REMARK    9  A    between atoms: _20  and  _23
REMARK   10  A    between atoms: _23  and  _24
REMARK   11  A    between atoms: _27  and  _29
REMARK   12  A    between atoms: _29  and  _30
REMARK   13  A    between atoms: _29  and  _32
REMARK   14  A    between atoms: _32  and  _33
REMARK   15  A    between atoms: _36  and  _38
REMARK   16  A    between atoms: _38  and  _39
REMARK   17  A    between atoms: _38  and  _41
REMARK   18  A    between atoms: _41  and  _42
REMARK   19  A    between atoms: _45  and  _47
REMARK   20  A    between atoms: _47  and  _48
REMARK   21  A    between atoms: _47  and  _50
REMARK   22  A    between atoms: _50  and  _51
REMARK   23  A    between atoms: _54  and  _56
REMARK   24  A    between atoms: _56  and  _57
REMARK   25  A    between atoms: _59  and  _61
REMARK   26  A    between atoms: _61  and  _62
REMARK   27  A    between atoms: _65  and  _67
REMARK   28  A    between atoms: _67  and  _68
REMARK   29  A    between atoms: _67  and  _70
REMARK   30  A    between atoms: _70  and  _71
REMARK   31  A    between atoms: _74  and  _76
REMARK   32  A    between atoms: _76  and  _77
REMARK   33  A    between atoms: _76  and  _79
REMARK   34  A    between atoms: _79  and  _80
REMARK   35  A    between atoms: _83  and  _85
REMARK   36  A    between atoms: _85  and  _86
REMARK   37  A    between atoms: _85  and  _88
REMARK   38  A    between atoms: _88  and  _89
REMARK   39  A    between atoms: _92  and  _94
REMARK   40  A    between atoms: _94  and  _95
REMARK   41  A    between atoms: _94  and  _97
REMARK   42  A    between atoms: _100  and  _102
REMARK   43  A    between atoms: _102  and  _103
REMARK   44  A    between atoms: _102  and  _105
REMARK   45  A    between atoms: _105  and  _106
REMARK   46  A    between atoms: _109  and  _111
REMARK   47  A    between atoms: _111  and  _112
REMARK   48  A    between atoms: _114  and  _116
REMARK   49  A    between atoms: _116  and  _117
REMARK   50  A    between atoms: _119  and  _121
REMARK   51  A    between atoms: _121  and  _122
REMARK   52  A    between atoms: _121  and  _124
REMARK   53  A    between atoms: _124  and  _125
REMARK   54  A    between atoms: _128  and  _130
REMARK   55  A    between atoms: _130  and  _131
REMARK   56  A    between atoms: _133  and  _135
REMARK   57  A    between atoms: _135  and  _136
REMARK   58  A    between atoms: _138  and  _140
REMARK   59  A    between atoms: _140  and  _141
REMARK   60  A    between atoms: _140  and  _143
REMARK   61  A    between atoms: _143  and  _144
REMARK   62  A    between atoms: _150  and  _152
REMARK   63  A    between atoms: _152  and  _153
REMARK   64  A    between atoms: _152  and  _155
REMARK   65  A    between atoms: _155  and  _156
REMARK   66  A    between atoms: _159  and  _161
REMARK   67  A    between atoms: _161  and  _162
REMARK   68  A    between atoms: _161  and  _164
REMARK   69  A    between atoms: _164  and  _165
REMARK   70  A    between atoms: _168  and  _170
REMARK   71  A    between atoms: _170  and  _171
REMARK   72  A    between atoms: _170  and  _173
REMARK   73  A    between atoms: _173  and  _174
REMARK   74  A    between atoms: _178  and  _179
REMARK   75  A    between atoms: _184  and  _186
REMARK   76  A    between atoms: _186  and  _187
REMARK   77  A    between atoms: _186  and  _189
REMARK   78  A    between atoms: _192  and  _194
REMARK   79  A    between atoms: _194  and  _195
REMARK   80  A    between atoms: _194  and  _197
REMARK   81  A    between atoms: _197  and  _198
REMARK   82  A    between atoms: _203  and  _205
REMARK   83  A    between atoms: _205  and  _206
REMARK   84  A    between atoms: _205  and  _208
REMARK   85  A    between atoms: _208  and  _209
REMARK   86  A    between atoms: _212  and  _214
REMARK   87  A    between atoms: _214  and  _215
REMARK   88  A    between atoms: _217  and  _219
REMARK   89  A    between atoms: _219  and  _220
REMARK   90  A    between atoms: _219  and  _222
REMARK   91  A    between atoms: _222  and  _223
REMARK   92  A    between atoms: _223  and  _224
REMARK   93  A    between atoms: _224  and  _225
REMARK   94  A    between atoms: _234  and  _236
REMARK   95  A    between atoms: _236  and  _237
REMARK   96  A    between atoms: _236  and  _239
REMARK   97  A    between atoms: _239  and  _240
REMARK   98  A    between atoms: _245  and  _247
REMARK   99  A    between atoms: _247  and  _248
REMARK  100  A    between atoms: _247  and  _250
REMARK  101  A    between atoms: _250  and  _251
REMARK  102  A    between atoms: _251  and  _252
REMARK  103  A    between atoms: _252  and  _253
REMARK  104  A    between atoms: _262  and  _264
REMARK  105  A    between atoms: _264  and  _265
REMARK  106  A    between atoms: _264  and  _267
REMARK  107  A    between atoms: _267  and  _268
REMARK  108  A    between atoms: _271  and  _273
REMARK  109  A    between atoms: _273  and  _274
REMARK  110  A    between atoms: _273  and  _276
REMARK  111  A    between atoms: _276  and  _277
REMARK  112  A    between atoms: _280  and  _282
REMARK  113  A    between atoms: _282  and  _283
REMARK  114  A    between atoms: _282  and  _285
REMARK  115  A    between atoms: _285  and  _286
REMARK  116  A    between atoms: _289  and  _291
REMARK  117  A    between atoms: _291  and  _292
REMARK  118  A    between atoms: _291  and  _294
REMARK  119  A    between atoms: _294  and  _295
REMARK  120  A    between atoms: _298  and  _300
REMARK  121  A    between atoms: _300  and  _301
REMARK  122  A    between atoms: _303  and  _305
REMARK  123  A    between atoms: _305  and  _306
REMARK  124  A    between atoms: _309  and  _311
REMARK  125  A    between atoms: _311  and  _312
REMARK  126  A    between atoms: _311  and  _314
REMARK  127  A    between atoms: _314  and  _315
REMARK  128  A    between atoms: _318  and  _320
REMARK  129  A    between atoms: _320  and  _321
REMARK  130  A    between atoms: _320  and  _323
REMARK  131  A    between atoms: _323  and  _324
REMARK  132  A    between atoms: _327  and  _329
REMARK  133  A    between atoms: _329  and  _330
REMARK  134  A    between atoms: _329  and  _332
REMARK  135  A    between atoms: _332  and  _333
REMARK  136  A    between atoms: _336  and  _338
REMARK  137  A    between atoms: _338  and  _339
REMARK  138  A    between atoms: _338  and  _341
REMARK  139  A    between atoms: _344  and  _346
REMARK  140  A    between atoms: _346  and  _347
REMARK  141  A    between atoms: _346  and  _349
REMARK  142  A    between atoms: _349  and  _350
REMARK  143  A    between atoms: _350  and  _351
REMARK  144  A    between atoms: _351  and  _352
REMARK  145  A    between atoms: _352  and  _353
REMARK  146  A    between atoms: _357  and  _359
REMARK  147  A    between atoms: _359  and  _360
REMARK  148  A    between atoms: _359  and  _362
REMARK  149  A    between atoms: _362  and  _363
REMARK  150  A    between atoms: _363  and  _364
REMARK  151  A    between atoms: _366  and  _368
REMARK  152  A    between atoms: _368  and  _369
REMARK  153  A    between atoms: _368  and  _371
REMARK  154  A    between atoms: _371  and  _372
REMARK  155  A    between atoms: _375  and  _377
REMARK  156  A    between atoms: _377  and  _378
REMARK  157  A    between atoms: _380  and  _382
REMARK  158  A    between atoms: _382  and  _383
REMARK  159  A    between atoms: _385  and  _387
REMARK  160  A    between atoms: _387  and  _388
REMARK  161  A    between atoms: _387  and  _390
REMARK  162  A    between atoms: _390  and  _391
REMARK  163  A    between atoms: _394  and  _396
REMARK  164  A    between atoms: _396  and  _397
REMARK  165  A    between atoms: _399  and  _401
REMARK  166  A    between atoms: _401  and  _402
REMARK  167  A    between atoms: _404  and  _406
REMARK  168  A    between atoms: _406  and  _407
REMARK  169  A    between atoms: _406  and  _409
REMARK  170  A    between atoms: _409  and  _410
REMARK  171  A    between atoms: _416  and  _418
REMARK  172  A    between atoms: _418  and  _419
REMARK  173  A    between atoms: _418  and  _421
REMARK  174  A    between atoms: _421  and  _422
REMARK  175  A    between atoms: _425  and  _427
REMARK  176  A    between atoms: _427  and  _428
REMARK  177  A    between atoms: _427  and  _430
REMARK  178  A    between atoms: _430  and  _431
REMARK  179  A    between atoms: _435  and  _436
REMARK  180  A    between atoms: _441  and  _443
REMARK  181  A    between atoms: _443  and  _444
REMARK  182  A    between atoms: _443  and  _446
REMARK  183  A    between atoms: _446  and  _447
REMARK  184  A    between atoms: _451  and  _452
REMARK  185  A    between atoms: _457  and  _459
REMARK  186  A    between atoms: _459  and  _460
REMARK  187  A    between atoms: _459  and  _462
REMARK  188  A    between atoms: _465  and  _467
REMARK  189  A    between atoms: _467  and  _468
REMARK  190  A    between atoms: _467  and  _470
REMARK  191  A    between atoms: _470  and  _471
REMARK  192  A    between atoms: _476  and  _478
REMARK  193  A    between atoms: _478  and  _479
REMARK  194  A    between atoms: _478  and  _481
REMARK  195  A    between atoms: _481  and  _482
REMARK  196  A    between atoms: _485  and  _487
REMARK  197  A    between atoms: _487  and  _488
REMARK  198  A    between atoms: _487  and  _490
REMARK  199  A    between atoms: _490  and  _491
REMARK  200  A    between atoms: _494  and  _496
REMARK  201  A    between atoms: _496  and  _497
REMARK  202  A    between atoms: _499  and  _501
REMARK  203  A    between atoms: _501  and  _502
REMARK  204  A    between atoms: _501  and  _504
REMARK  205  A    between atoms: _504  and  _505
REMARK  206  A    between atoms: _505  and  _506
REMARK  207  A    between atoms: _506  and  _507
REMARK  208  A    between atoms: _516  and  _518
REMARK  209  A    between atoms: _518  and  _519
REMARK  210  A    between atoms: _518  and  _521
REMARK  211  A    between atoms: _521  and  _522
REMARK                            x       y       z     vdW  Elec       q    Type
REMARK                         _______ _______ _______ _____ _____    ______ ____
ROOT
ATOM      1  O   HOH     1      19.853  36.874  18.781  0.00  0.00    +0.000 OA
ENDROOT
TORSDOF 0
REMARK  Name = ../refined-set-2016/4djr/4djr_pocket.pdb
REMARK  211 active torsions:
REMARK  status: ('A' for Active; 'I' for Inactive)
REMARK    1  A    between atoms: _1  and  _3
REMARK    2  A    between atoms: _3  and  _4
REMARK    3  A    between atoms: _3  and  _6
REMARK    4  A    between atoms: _6  and  _7
REMARK    5  A    between atoms: _7  and  _8
REMARK    6  A    between atoms: _8  and  _9
REMARK    7  A    between atoms: _18  and  _20
REMARK    8  A    between atoms: _20  and  _21
REMARK    9  A    between atoms: _20  and  _23
REMARK   10  A    between atoms: _23  and  _24
REMARK   11  A    between atoms: _27  and  _29
REMARK   12  A    between atoms: _29  and  _30
REMARK   13  A    between atoms: _29  and  _32
REMARK   14  A    between atoms: _32  and  _33
REMARK   15  A    between atoms: _36  and  _38
REMARK   16  A    between atoms: _38  and  _39
REMARK   17  A    between atoms: _38  and  _41
REMARK   18  A    between atoms: _41  and  _42
REMARK   19  A    between atoms: _45  and  _47
REMARK   20  A    between atoms: _47  and  _48
REMARK   21  A    between atoms: _47  and  _50
REMARK   22  A    between atoms: _50  and  _51
REMARK   23  A    between atoms: _54  and  _56
REMARK   24  A    between atoms: _56  and  _57
REMARK   25  A    between atoms: _59  and  _61
REMARK   26  A    between atoms: _61  and  _62
REMARK   27  A    between atoms: _65  and  _67
REMARK   28  A    between atoms: _67  and  _68
REMARK   29  A    between atoms: _67  and  _70
REMARK   30  A    between atoms: _70  and  _71
REMARK   31  A    between atoms: _74  and  _76
REMARK   32  A    between atoms: _76  and  _77
REMARK   33  A    between atoms: _76  and  _79
REMARK   34  A    between atoms: _79  and  _80
REMARK   35  A    between atoms: _83  and  _85
REMARK   36  A    between atoms: _85  and  _86
REMARK   37  A    between atoms: _85  and  _88
REMARK   38  A    between atoms: _88  and  _89
REMARK   39  A    between atoms: _92  and  _94
REMARK   40  A    between atoms: _94  and  _95
REMARK   41  A    between atoms: _94  and  _97
REMARK   42  A    between atoms: _100  and  _102
REMARK   43  A    between atoms: _102  and  _103
REMARK   44  A    between atoms: _102  and  _105
REMARK   45  A    between atoms: _105  and  _106
REMARK   46  A    between atoms: _109  and  _111
REMARK   47  A    between atoms: _111  and  _112
REMARK   48  A    between atoms: _114  and  _116
REMARK   49  A    between atoms: _116  and  _117
REMARK   50  A    between atoms: _119  and  _121
REMARK   51  A    between atoms: _121  and  _122
REMARK   52  A    between atoms: _121  and  _124
REMARK   53  A    between atoms: _124  and  _125
REMARK   54  A    between atoms: _128  and  _130
REMARK   55  A    between atoms: _130  and  _131
REMARK   56  A    between atoms: _133  and  _135
REMARK   57  A    between atoms: _135  and  _136
REMARK   58  A    between atoms: _138  and  _140
REMARK   59  A    between atoms: _140  and  _141
REMARK   60  A    between atoms: _140  and  _143
REMARK   61  A    between atoms: _143  and  _144
REMARK   62  A    between atoms: _150  and  _152
REMARK   63  A    between atoms: _152  and  _153
REMARK   64  A    between atoms: _152  and  _155
REMARK   65  A    between atoms: _155  and  _156
REMARK   66  A    between atoms: _159  and  _161
REMARK   67  A    between atoms: _161  and  _162
REMARK   68  A    between atoms: _161  and  _164
REMARK   69  A    between atoms: _164  and  _165
REMARK   70  A    between atoms: _168  and  _170
REMARK   71  A    between atoms: _170  and  _171
REMARK   72  A    between atoms: _170  and  _173
REMARK   73  A    between atoms: _173  and  _174
REMARK   74  A    between atoms: _178  and  _179
REMARK   75  A    between atoms: _184  and  _186
REMARK   76  A    between atoms: _186  and  _187
REMARK   77  A    between atoms: _186  and  _189
REMARK   78  A    between atoms: _192  and  _194
REMARK   79  A    between atoms: _194  and  _195
REMARK   80  A    between atoms: _194  and  _197
REMARK   81  A    between atoms: _197  and  _198
REMARK   82  A    between atoms: _203  and  _205
REMARK   83  A    between atoms: _205  and  _206
REMARK   84  A    between atoms: _205  and  _208
REMARK   85  A    between atoms: _208  and  _209
REMARK   86  A    between atoms: _212  and  _214
REMARK   87  A    between atoms: _214  and  _215
REMARK   88  A    between atoms: _217  and  _219
REMARK   89  A    between atoms: _219  and  _220
REMARK   90  A    between atoms: _219  and  _222
REMARK   91  A    between atoms: _222  and  _223
REMARK   92  A    between atoms: _223  and  _224
REMARK   93  A    between atoms: _224  and  _225
REMARK   94  A    between atoms: _234  and  _236
REMARK   95  A    between atoms: _236  and  _237
REMARK   96  A    between atoms: _236  and  _239
REMARK   97  A    between atoms: _239  and  _240
REMARK   98  A    between atoms: _245  and  _247
REMARK   99  A    between atoms: _247  and  _248
REMARK  100  A    between atoms: _247  and  _250
REMARK  101  A    between atoms: _250  and  _251
REMARK  102  A    between atoms: _251  and  _252
REMARK  103  A    between atoms: _252  and  _253
REMARK  104  A    between atoms: _262  and  _264
REMARK  105  A    between atoms: _264  and  _265
REMARK  106  A    between atoms: _264  and  _267
REMARK  107  A    between atoms: _267  and  _268
REMARK  108  A    between atoms: _271  and  _273
REMARK  109  A    between atoms: _273  and  _274
REMARK  110  A    between atoms: _273  and  _276
REMARK  111  A    between atoms: _276  and  _277
REMARK  112  A    between atoms: _280  and  _282
REMARK  113  A    between atoms: _282  and  _283
REMARK  114  A    between atoms: _282  and  _285
REMARK  115  A    between atoms: _285  and  _286
REMARK  116  A    between atoms: _289  and  _291
REMARK  117  A    between atoms: _291  and  _292
REMARK  118  A    between atoms: _291  and  _294
REMARK  119  A    between atoms: _294  and  _295
REMARK  120  A    between atoms: _298  and  _300
REMARK  121  A    between atoms: _300  and  _301
REMARK  122  A    between atoms: _303  and  _305
REMARK  123  A    between atoms: _305  and  _306
REMARK  124  A    between atoms: _309  and  _311
REMARK  125  A    between atoms: _311  and  _312
REMARK  126  A    between atoms: _311  and  _314
REMARK  127  A    between atoms: _314  and  _315
REMARK  128  A    between atoms: _318  and  _320
REMARK  129  A    between atoms: _320  and  _321
REMARK  130  A    between atoms: _320  and  _323
REMARK  131  A    between atoms: _323  and  _324
REMARK  132  A    between atoms: _327  and  _329
REMARK  133  A    between atoms: _329  and  _330
REMARK  134  A    between atoms: _329  and  _332
REMARK  135  A    between atoms: _332  and  _333
REMARK  136  A    between atoms: _336  and  _338
REMARK  137  A    between atoms: _338  and  _339
REMARK  138  A    between atoms: _338  and  _341
REMARK  139  A    between atoms: _344  and  _346
REMARK  140  A    between atoms: _346  and  _347
REMARK  141  A    between atoms: _346  and  _349
REMARK  142  A    between atoms: _349  and  _350
REMARK  143  A    between atoms: _350  and  _351
REMARK  144  A    between atoms: _351  and  _352
REMARK  145  A    between atoms: _352  and  _353
REMARK  146  A    between atoms: _357  and  _359
REMARK  147  A    between atoms: _359  and  _360
REMARK  148  A    between atoms: _359  and  _362
REMARK  149  A    between atoms: _362  and  _363
REMARK  150  A    between atoms: _363  and  _364
REMARK  151  A    between atoms: _366  and  _368
REMARK  152  A    between atoms: _368  and  _369
REMARK  153  A    between atoms: _368  and  _371
REMARK  154  A    between atoms: _371  and  _372
REMARK  155  A    between atoms: _375  and  _377
REMARK  156  A    between atoms: _377  and  _378
REMARK  157  A    between atoms: _380  and  _382
REMARK  158  A    between atoms: _382  and  _383
REMARK  159  A    between atoms: _385  and  _387
REMARK  160  A    between atoms: _387  and  _388
REMARK  161  A    between atoms: _387  and  _390
REMARK  162  A    between atoms: _390  and  _391
REMARK  163  A    between atoms: _394  and  _396
REMARK  164  A    between atoms: _396  and  _397
REMARK  165  A    between atoms: _399  and  _401
REMARK  166  A    between atoms: _401  and  _402
REMARK  167  A    between atoms: _404  and  _406
REMARK  168  A    between atoms: _406  and  _407
REMARK  169  A    between atoms: _406  and  _409
REMARK  170  A    between atoms: _409  and  _410
REMARK  171  A    between atoms: _416  and  _418
REMARK  172  A    between atoms: _418  and  _419
REMARK  173  A    between atoms: _418  and  _421
REMARK  174  A    between atoms: _421  and  _422
REMARK  175  A    between atoms: _425  and  _427
REMARK  176  A    between atoms: _427  and  _428
REMARK  177  A    between atoms: _427  and  _430
REMARK  178  A    between atoms: _430  and  _431
REMARK  179  A    between atoms: _435  and  _436
REMARK  180  A    between atoms: _441  and  _443
REMARK  181  A    between atoms: _443  and  _444
REMARK  182  A    between atoms: _443  and  _446
REMARK  183  A    between atoms: _446  and  _447
REMARK  184  A    between atoms: _451  and  _452
REMARK  185  A    between atoms: _457  and  _459
REMARK  186  A    between atoms: _459  and  _460
REMARK  187  A    between atoms: _459  and  _462
REMARK  188  A    between atoms: _465  and  _467
REMARK  189  A    between atoms: _467  and  _468
REMARK  190  A    between atoms: _467  and  _470
REMARK  191  A    between atoms: _470  and  _471
REMARK  192  A    between atoms: _476  and  _478
REMARK  193  A    between atoms: _478  and  _479
REMARK  194  A    between atoms: _478  and  _481
REMARK  195  A    between atoms: _481  and  _482
REMARK  196  A    between atoms: _485  and  _487
REMARK  197  A    between atoms: _487  and  _488
REMARK  198  A    between atoms: _487  and  _490
REMARK  199  A    between atoms: _490  and  _491
REMARK  200  A    between atoms: _494  and  _496
REMARK  201  A    between atoms: _496  and  _497
REMARK  202  A    between atoms: _499  and  _501
REMARK  203  A    between atoms: _501  and  _502
REMARK  204  A    between atoms: _501  and  _504
REMARK  205  A    between atoms: _504  and  _505
REMARK  206  A    between atoms: _505  and  _506
REMARK  207  A    between atoms: _506  and  _507
REMARK  208  A    between atoms: _516  and  _518
REMARK  209  A    between atoms: _518  and  _519
REMARK  210  A    between atoms: _518  and  _521
REMARK  211  A    between atoms: _521  and  _522
REMARK                            x       y       z     vdW  Elec       q    Type
REMARK                         _______ _______ _______ _____ _____    ______ ____
ROOT
ATOM      1  O   HOH     1       9.617  39.094  22.393  0.00  0.00    +0.000 OA
ENDROOT
TORSDOF 0
REMARK  Name = ../refined-set-2016/4djr/4djr_pocket.pdb
REMARK  211 active torsions:
REMARK  status: ('A' for Active; 'I' for Inactive)
REMARK    1  A    between atoms: _1  and  _3
REMARK    2  A    between atoms: _3  and  _4
REMARK    3  A    between atoms: _3  and  _6
REMARK    4  A    between atoms: _6  and  _7
REMARK    5  A    between atoms: _7  and  _8
REMARK    6  A    between atoms: _8  and  _9
REMARK    7  A    between atoms: _18  and  _20
REMARK    8  A    between atoms: _20  and  _21
REMARK    9  A    between atoms: _20  and  _23
REMARK   10  A    between atoms: _23  and  _24
REMARK   11  A    between atoms: _27  and  _29
REMARK   12  A    between atoms: _29  and  _30
REMARK   13  A    between atoms: _29  and  _32
REMARK   14  A    between atoms: _32  and  _33
REMARK   15  A    between atoms: _36  and  _38
REMARK   16  A    between atoms: _38  and  _39
REMARK   17  A    between atoms: _38  and  _41
REMARK   18  A    between atoms: _41  and  _42
REMARK   19  A    between atoms: _45  and  _47
REMARK   20  A    between atoms: _47  and  _48
REMARK   21  A    between atoms: _47  and  _50
REMARK   22  A    between atoms: _50  and  _51
REMARK   23  A    between atoms: _54  and  _56
REMARK   24  A    between atoms: _56  and  _57
REMARK   25  A    between atoms: _59  and  _61
REMARK   26  A    between atoms: _61  and  _62
REMARK   27  A    between atoms: _65  and  _67
REMARK   28  A    between atoms: _67  and  _68
REMARK   29  A    between atoms: _67  and  _70
REMARK   30  A    between atoms: _70  and  _71
REMARK   31  A    between atoms: _74  and  _76
REMARK   32  A    between atoms: _76  and  _77
REMARK   33  A    between atoms: _76  and  _79
REMARK   34  A    between atoms: _79  and  _80
REMARK   35  A    between atoms: _83  and  _85
REMARK   36  A    between atoms: _85  and  _86
REMARK   37  A    between atoms: _85  and  _88
REMARK   38  A    between atoms: _88  and  _89
REMARK   39  A    between atoms: _92  and  _94
REMARK   40  A    between atoms: _94  and  _95
REMARK   41  A    between atoms: _94  and  _97
REMARK   42  A    between atoms: _100  and  _102
REMARK   43  A    between atoms: _102  and  _103
REMARK   44  A    between atoms: _102  and  _105
REMARK   45  A    between atoms: _105  and  _106
REMARK   46  A    between atoms: _109  and  _111
REMARK   47  A    between atoms: _111  and  _112
REMARK   48  A    between atoms: _114  and  _116
REMARK   49  A    between atoms: _116  and  _117
REMARK   50  A    between atoms: _119  and  _121
REMARK   51  A    between atoms: _121  and  _122
REMARK   52  A    between atoms: _121  and  _124
REMARK   53  A    between atoms: _124  and  _125
REMARK   54  A    between atoms: _128  and  _130
REMARK   55  A    between atoms: _130  and  _131
REMARK   56  A    between atoms: _133  and  _135
REMARK   57  A    between atoms: _135  and  _136
REMARK   58  A    between atoms: _138  and  _140
REMARK   59  A    between atoms: _140  and  _141
REMARK   60  A    between atoms: _140  and  _143
REMARK   61  A    between atoms: _143  and  _144
REMARK   62  A    between atoms: _150  and  _152
REMARK   63  A    between atoms: _152  and  _153
REMARK   64  A    between atoms: _152  and  _155
REMARK   65  A    between atoms: _155  and  _156
REMARK   66  A    between atoms: _159  and  _161
REMARK   67  A    between atoms: _161  and  _162
REMARK   68  A    between atoms: _161  and  _164
REMARK   69  A    between atoms: _164  and  _165
REMARK   70  A    between atoms: _168  and  _170
REMARK   71  A    between atoms: _170  and  _171
REMARK   72  A    between atoms: _170  and  _173
REMARK   73  A    between atoms: _173  and  _174
REMARK   74  A    between atoms: _178  and  _179
REMARK   75  A    between atoms: _184  and  _186
REMARK   76  A    between atoms: _186  and  _187
REMARK   77  A    between atoms: _186  and  _189
REMARK   78  A    between atoms: _192  and  _194
REMARK   79  A    between atoms: _194  and  _195
REMARK   80  A    between atoms: _194  and  _197
REMARK   81  A    between atoms: _197  and  _198
REMARK   82  A    between atoms: _203  and  _205
REMARK   83  A    between atoms: _205  and  _206
REMARK   84  A    between atoms: _205  and  _208
REMARK   85  A    between atoms: _208  and  _209
REMARK   86  A    between atoms: _212  and  _214
REMARK   87  A    between atoms: _214  and  _215
REMARK   88  A    between atoms: _217  and  _219
REMARK   89  A    between atoms: _219  and  _220
REMARK   90  A    between atoms: _219  and  _222
REMARK   91  A    between atoms: _222  and  _223
REMARK   92  A    between atoms: _223  and  _224
REMARK   93  A    between atoms: _224  and  _225
REMARK   94  A    between atoms: _234  and  _236
REMARK   95  A    between atoms: _236  and  _237
REMARK   96  A    between atoms: _236  and  _239
REMARK   97  A    between atoms: _239  and  _240
REMARK   98  A    between atoms: _245  and  _247
REMARK   99  A    between atoms: _247  and  _248
REMARK  100  A    between atoms: _247  and  _250
REMARK  101  A    between atoms: _250  and  _251
REMARK  102  A    between atoms: _251  and  _252
REMARK  103  A    between atoms: _252  and  _253
REMARK  104  A    between atoms: _262  and  _264
REMARK  105  A    between atoms: _264  and  _265
REMARK  106  A    between atoms: _264  and  _267
REMARK  107  A    between atoms: _267  and  _268
REMARK  108  A    between atoms: _271  and  _273
REMARK  109  A    between atoms: _273  and  _274
REMARK  110  A    between atoms: _273  and  _276
REMARK  111  A    between atoms: _276  and  _277
REMARK  112  A    between atoms: _280  and  _282
REMARK  113  A    between atoms: _282  and  _283
REMARK  114  A    between atoms: _282  and  _285
REMARK  115  A    between atoms: _285  and  _286
REMARK  116  A    between atoms: _289  and  _291
REMARK  117  A    between atoms: _291  and  _292
REMARK  118  A    between atoms: _291  and  _294
REMARK  119  A    between atoms: _294  and  _295
REMARK  120  A    between atoms: _298  and  _300
REMARK  121  A    between atoms: _300  and  _301
REMARK  122  A    between atoms: _303  and  _305
REMARK  123  A    between atoms: _305  and  _306
REMARK  124  A    between atoms: _309  and  _311
REMARK  125  A    between atoms: _311  and  _312
REMARK  126  A    between atoms: _311  and  _314
REMARK  127  A    between atoms: _314  and  _315
REMARK  128  A    between atoms: _318  and  _320
REMARK  129  A    between atoms: _320  and  _321
REMARK  130  A    between atoms: _320  and  _323
REMARK  131  A    between atoms: _323  and  _324
REMARK  132  A    between atoms: _327  and  _329
REMARK  133  A    between atoms: _329  and  _330
REMARK  134  A    between atoms: _329  and  _332
REMARK  135  A    between atoms: _332  and  _333
REMARK  136  A    between atoms: _336  and  _338
REMARK  137  A    between atoms: _338  and  _339
REMARK  138  A    between atoms: _338  and  _341
REMARK  139  A    between atoms: _344  and  _346
REMARK  140  A    between atoms: _346  and  _347
REMARK  141  A    between atoms: _346  and  _349
REMARK  142  A    between atoms: _349  and  _350
REMARK  143  A    between atoms: _350  and  _351
REMARK  144  A    between atoms: _351  and  _352
REMARK  145  A    between atoms: _352  and  _353
REMARK  146  A    between atoms: _357  and  _359
REMARK  147  A    between atoms: _359  and  _360
REMARK  148  A    between atoms: _359  and  _362
REMARK  149  A    between atoms: _362  and  _363
REMARK  150  A    between atoms: _363  and  _364
REMARK  151  A    between atoms: _366  and  _368
REMARK  152  A    between atoms: _368  and  _369
REMARK  153  A    between atoms: _368  and  _371
REMARK  154  A    between atoms: _371  and  _372
REMARK  155  A    between atoms: _375  and  _377
REMARK  156  A    between atoms: _377  and  _378
REMARK  157  A    between atoms: _380  and  _382
REMARK  158  A    between atoms: _382  and  _383
REMARK  159  A    between atoms: _385  and  _387
REMARK  160  A    between atoms: _387  and  _388
REMARK  161  A    between atoms: _387  and  _390
REMARK  162  A    between atoms: _390  and  _391
REMARK  163  A    between atoms: _394  and  _396
REMARK  164  A    between atoms: _396  and  _397
REMARK  165  A    between atoms: _399  and  _401
REMARK  166  A    between atoms: _401  and  _402
REMARK  167  A    between atoms: _404  and  _406
REMARK  168  A    between atoms: _406  and  _407
REMARK  169  A    between atoms: _406  and  _409
REMARK  170  A    between atoms: _409  and  _410
REMARK  171  A    between atoms: _416  and  _418
REMARK  172  A    between atoms: _418  and  _419
REMARK  173  A    between atoms: _418  and  _421
REMARK  174  A    between atoms: _421  and  _422
REMARK  175  A    between atoms: _425  and  _427
REMARK  176  A    between atoms: _427  and  _428
REMARK  177  A    between atoms: _427  and  _430
REMARK  178  A    between atoms: _430  and  _431
REMARK  179  A    between atoms: _435  and  _436
REMARK  180  A    between atoms: _441  and  _443
REMARK  181  A    between atoms: _443  and  _444
REMARK  182  A    between atoms: _443  and  _446
REMARK  183  A    between atoms: _446  and  _447
REMARK  184  A    between atoms: _451  and  _452
REMARK  185  A    between atoms: _457  and  _459
REMARK  186  A    between atoms: _459  and  _460
REMARK  187  A    between atoms: _459  and  _462
REMARK  188  A    between atoms: _465  and  _467
REMARK  189  A    between atoms: _467  and  _468
REMARK  190  A    between atoms: _467  and  _470
REMARK  191  A    between atoms: _470  and  _471
REMARK  192  A    between atoms: _476  and  _478
REMARK  193  A    between atoms: _478  and  _479
REMARK  194  A    between atoms: _478  and  _481
REMARK  195  A    between atoms: _481  and  _482
REMARK  196  A    between atoms: _485  and  _487
REMARK  197  A    between atoms: _487  and  _488
REMARK  198  A    between atoms: _487  and  _490
REMARK  199  A    between atoms: _490  and  _491
REMARK  200  A    between atoms: _494  and  _496
REMARK  201  A    between atoms: _496  and  _497
REMARK  202  A    between atoms: _499  and  _501
REMARK  203  A    between atoms: _501  and  _502
REMARK  204  A    between atoms: _501  and  _504
REMARK  205  A    between atoms: _504  and  _505
REMARK  206  A    between atoms: _505  and  _506
REMARK  207  A    between atoms: _506  and  _507
REMARK  208  A    between atoms: _516  and  _518
REMARK  209  A    between atoms: _518  and  _519
REMARK  210  A    between atoms: _518  and  _521
REMARK  211  A    between atoms: _521  and  _522
REMARK                            x       y       z     vdW  Elec       q    Type
REMARK                         _______ _______ _______ _____ _____    ______ ____
ROOT
ATOM      1  O   HOH     1      15.751  43.132  15.883  0.00  0.00    +0.000 OA
ENDROOT
TORSDOF 0
REMARK  Name = ../refined-set-2016/4djr/4djr_pocket.pdb
REMARK  211 active torsions:
REMARK  status: ('A' for Active; 'I' for Inactive)
REMARK    1  A    between atoms: _1  and  _3
REMARK    2  A    between atoms: _3  and  _4
REMARK    3  A    between atoms: _3  and  _6
REMARK    4  A    between atoms: _6  and  _7
REMARK    5  A    between atoms: _7  and  _8
REMARK    6  A    between atoms: _8  and  _9
REMARK    7  A    between atoms: _18  and  _20
REMARK    8  A    between atoms: _20  and  _21
REMARK    9  A    between atoms: _20  and  _23
REMARK   10  A    between atoms: _23  and  _24
REMARK   11  A    between atoms: _27  and  _29
REMARK   12  A    between atoms: _29  and  _30
REMARK   13  A    between atoms: _29  and  _32
REMARK   14  A    between atoms: _32  and  _33
REMARK   15  A    between atoms: _36  and  _38
REMARK   16  A    between atoms: _38  and  _39
REMARK   17  A    between atoms: _38  and  _41
REMARK   18  A    between atoms: _41  and  _42
REMARK   19  A    between atoms: _45  and  _47
REMARK   20  A    between atoms: _47  and  _48
REMARK   21  A    between atoms: _47  and  _50
REMARK   22  A    between atoms: _50  and  _51
REMARK   23  A    between atoms: _54  and  _56
REMARK   24  A    between atoms: _56  and  _57
REMARK   25  A    between atoms: _59  and  _61
REMARK   26  A    between atoms: _61  and  _62
REMARK   27  A    between atoms: _65  and  _67
REMARK   28  A    between atoms: _67  and  _68
REMARK   29  A    between atoms: _67  and  _70
REMARK   30  A    between atoms: _70  and  _71
REMARK   31  A    between atoms: _74  and  _76
REMARK   32  A    between atoms: _76  and  _77
REMARK   33  A    between atoms: _76  and  _79
REMARK   34  A    between atoms: _79  and  _80
REMARK   35  A    between atoms: _83  and  _85
REMARK   36  A    between atoms: _85  and  _86
REMARK   37  A    between atoms: _85  and  _88
REMARK   38  A    between atoms: _88  and  _89
REMARK   39  A    between atoms: _92  and  _94
REMARK   40  A    between atoms: _94  and  _95
REMARK   41  A    between atoms: _94  and  _97
REMARK   42  A    between atoms: _100  and  _102
REMARK   43  A    between atoms: _102  and  _103
REMARK   44  A    between atoms: _102  and  _105
REMARK   45  A    between atoms: _105  and  _106
REMARK   46  A    between atoms: _109  and  _111
REMARK   47  A    between atoms: _111  and  _112
REMARK   48  A    between atoms: _114  and  _116
REMARK   49  A    between atoms: _116  and  _117
REMARK   50  A    between atoms: _119  and  _121
REMARK   51  A    between atoms: _121  and  _122
REMARK   52  A    between atoms: _121  and  _124
REMARK   53  A    between atoms: _124  and  _125
REMARK   54  A    between atoms: _128  and  _130
REMARK   55  A    between atoms: _130  and  _131
REMARK   56  A    between atoms: _133  and  _135
REMARK   57  A    between atoms: _135  and  _136
REMARK   58  A    between atoms: _138  and  _140
REMARK   59  A    between atoms: _140  and  _141
REMARK   60  A    between atoms: _140  and  _143
REMARK   61  A    between atoms: _143  and  _144
REMARK   62  A    between atoms: _150  and  _152
REMARK   63  A    between atoms: _152  and  _153
REMARK   64  A    between atoms: _152  and  _155
REMARK   65  A    between atoms: _155  and  _156
REMARK   66  A    between atoms: _159  and  _161
REMARK   67  A    between atoms: _161  and  _162
REMARK   68  A    between atoms: _161  and  _164
REMARK   69  A    between atoms: _164  and  _165
REMARK   70  A    between atoms: _168  and  _170
REMARK   71  A    between atoms: _170  and  _171
REMARK   72  A    between atoms: _170  and  _173
REMARK   73  A    between atoms: _173  and  _174
REMARK   74  A    between atoms: _178  and  _179
REMARK   75  A    between atoms: _184  and  _186
REMARK   76  A    between atoms: _186  and  _187
REMARK   77  A    between atoms: _186  and  _189
REMARK   78  A    between atoms: _192  and  _194
REMARK   79  A    between atoms: _194  and  _195
REMARK   80  A    between atoms: _194  and  _197
REMARK   81  A    between atoms: _197  and  _198
REMARK   82  A    between atoms: _203  and  _205
REMARK   83  A    between atoms: _205  and  _206
REMARK   84  A    between atoms: _205  and  _208
REMARK   85  A    between atoms: _208  and  _209
REMARK   86  A    between atoms: _212  and  _214
REMARK   87  A    between atoms: _214  and  _215
REMARK   88  A    between atoms: _217  and  _219
REMARK   89  A    between atoms: _219  and  _220
REMARK   90  A    between atoms: _219  and  _222
REMARK   91  A    between atoms: _222  and  _223
REMARK   92  A    between atoms: _223  and  _224
REMARK   93  A    between atoms: _224  and  _225
REMARK   94  A    between atoms: _234  and  _236
REMARK   95  A    between atoms: _236  and  _237
REMARK   96  A    between atoms: _236  and  _239
REMARK   97  A    between atoms: _239  and  _240
REMARK   98  A    between atoms: _245  and  _247
REMARK   99  A    between atoms: _247  and  _248
REMARK  100  A    between atoms: _247  and  _250
REMARK  101  A    between atoms: _250  and  _251
REMARK  102  A    between atoms: _251  and  _252
REMARK  103  A    between atoms: _252  and  _253
REMARK  104  A    between atoms: _262  and  _264
REMARK  105  A    between atoms: _264  and  _265
REMARK  106  A    between atoms: _264  and  _267
REMARK  107  A    between atoms: _267  and  _268
REMARK  108  A    between atoms: _271  and  _273
REMARK  109  A    between atoms: _273  and  _274
REMARK  110  A    between atoms: _273  and  _276
REMARK  111  A    between atoms: _276  and  _277
REMARK  112  A    between atoms: _280  and  _282
REMARK  113  A    between atoms: _282  and  _283
REMARK  114  A    between atoms: _282  and  _285
REMARK  115  A    between atoms: _285  and  _286
REMARK  116  A    between atoms: _289  and  _291
REMARK  117  A    between atoms: _291  and  _292
REMARK  118  A    between atoms: _291  and  _294
REMARK  119  A    between atoms: _294  and  _295
REMARK  120  A    between atoms: _298  and  _300
REMARK  121  A    between atoms: _300  and  _301
REMARK  122  A    between atoms: _303  and  _305
REMARK  123  A    between atoms: _305  and  _306
REMARK  124  A    between atoms: _309  and  _311
REMARK  125  A    between atoms: _311  and  _312
REMARK  126  A    between atoms: _311  and  _314
REMARK  127  A    between atoms: _314  and  _315
REMARK  128  A    between atoms: _318  and  _320
REMARK  129  A    between atoms: _320  and  _321
REMARK  130  A    between atoms: _320  and  _323
REMARK  131  A    between atoms: _323  and  _324
REMARK  132  A    between atoms: _327  and  _329
REMARK  133  A    between atoms: _329  and  _330
REMARK  134  A    between atoms: _329  and  _332
REMARK  135  A    between atoms: _332  and  _333
REMARK  136  A    between atoms: _336  and  _338
REMARK  137  A    between atoms: _338  and  _339
REMARK  138  A    between atoms: _338  and  _341
REMARK  139  A    between atoms: _344  and  _346
REMARK  140  A    between atoms: _346  and  _347
REMARK  141  A    between atoms: _346  and  _349
REMARK  142  A    between atoms: _349  and  _350
REMARK  143  A    between atoms: _350  and  _351
REMARK  144  A    between atoms: _351  and  _352
REMARK  145  A    between atoms: _352  and  _353
REMARK  146  A    between atoms: _357  and  _359
REMARK  147  A    between atoms: _359  and  _360
REMARK  148  A    between atoms: _359  and  _362
REMARK  149  A    between atoms: _362  and  _363
REMARK  150  A    between atoms: _363  and  _364
REMARK  151  A    between atoms: _366  and  _368
REMARK  152  A    between atoms: _368  and  _369
REMARK  153  A    between atoms: _368  and  _371
REMARK  154  A    between atoms: _371  and  _372
REMARK  155  A    between atoms: _375  and  _377
REMARK  156  A    between atoms: _377  and  _378
REMARK  157  A    between atoms: _380  and  _382
REMARK  158  A    between atoms: _382  and  _383
REMARK  159  A    between atoms: _385  and  _387
REMARK  160  A    between atoms: _387  and  _388
REMARK  161  A    between atoms: _387  and  _390
REMARK  162  A    between atoms: _390  and  _391
REMARK  163  A    between atoms: _394  and  _396
REMARK  164  A    between atoms: _396  and  _397
REMARK  165  A    between atoms: _399  and  _401
REMARK  166  A    between atoms: _401  and  _402
REMARK  167  A    between atoms: _404  and  _406
REMARK  168  A    between atoms: _406  and  _407
REMARK  169  A    between atoms: _406  and  _409
REMARK  170  A    between atoms: _409  and  _410
REMARK  171  A    between atoms: _416  and  _418
REMARK  172  A    between atoms: _418  and  _419
REMARK  173  A    between atoms: _418  and  _421
REMARK  174  A    between atoms: _421  and  _422
REMARK  175  A    between atoms: _425  and  _427
REMARK  176  A    between atoms: _427  and  _428
REMARK  177  A    between atoms: _427  and  _430
REMARK  178  A    between atoms: _430  and  _431
REMARK  179  A    between atoms: _435  and  _436
REMARK  180  A    between atoms: _441  and  _443
REMARK  181  A    between atoms: _443  and  _444
REMARK  182  A    between atoms: _443  and  _446
REMARK  183  A    between atoms: _446  and  _447
REMARK  184  A    between atoms: _451  and  _452
REMARK  185  A    between atoms: _457  and  _459
REMARK  186  A    between atoms: _459  and  _460
REMARK  187  A    between atoms: _459  and  _462
REMARK  188  A    between atoms: _465  and  _467
REMARK  189  A    between atoms: _467  and  _468
REMARK  190  A    between atoms: _467  and  _470
REMARK  191  A    between atoms: _470  and  _471
REMARK  192  A    between atoms: _476  and  _478
REMARK  193  A    between atoms: _478  and  _479
REMARK  194  A    between atoms: _478  and  _481
REMARK  195  A    between atoms: _481  and  _482
REMARK  196  A    between atoms: _485  and  _487
REMARK  197  A    between atoms: _487  and  _488
REMARK  198  A    between atoms: _487  and  _490
REMARK  199  A    between atoms: _490  and  _491
REMARK  200  A    between atoms: _494  and  _496
REMARK  201  A    between atoms: _496  and  _497
REMARK  202  A    between atoms: _499  and  _501
REMARK  203  A    between atoms: _501  and  _502
REMARK  204  A    between atoms: _501  and  _504
REMARK  205  A    between atoms: _504  and  _505
REMARK  206  A    between atoms: _505  and  _506
REMARK  207  A    between atoms: _506  and  _507
REMARK  208  A    between atoms: _516  and  _518
REMARK  209  A    between atoms: _518  and  _519
REMARK  210  A    between atoms: _518  and  _521
REMARK  211  A    between atoms: _521  and  _522
REMARK                            x       y       z     vdW  Elec       q    Type
REMARK                         _______ _______ _______ _____ _____    ______ ____
ROOT
ATOM      1  O   HOH     1      15.679  39.950  18.333  0.00  0.00    +0.000 OA
ENDROOT
TORSDOF 0
REMARK  Name = ../refined-set-2016/4djr/4djr_pocket.pdb
REMARK  211 active torsions:
REMARK  status: ('A' for Active; 'I' for Inactive)
REMARK    1  A    between atoms: _1  and  _3
REMARK    2  A    between atoms: _3  and  _4
REMARK    3  A    between atoms: _3  and  _6
REMARK    4  A    between atoms: _6  and  _7
REMARK    5  A    between atoms: _7  and  _8
REMARK    6  A    between atoms: _8  and  _9
REMARK    7  A    between atoms: _18  and  _20
REMARK    8  A    between atoms: _20  and  _21
REMARK    9  A    between atoms: _20  and  _23
REMARK   10  A    between atoms: _23  and  _24
REMARK   11  A    between atoms: _27  and  _29
REMARK   12  A    between atoms: _29  and  _30
REMARK   13  A    between atoms: _29  and  _32
REMARK   14  A    between atoms: _32  and  _33
REMARK   15  A    between atoms: _36  and  _38
REMARK   16  A    between atoms: _38  and  _39
REMARK   17  A    between atoms: _38  and  _41
REMARK   18  A    between atoms: _41  and  _42
REMARK   19  A    between atoms: _45  and  _47
REMARK   20  A    between atoms: _47  and  _48
REMARK   21  A    between atoms: _47  and  _50
REMARK   22  A    between atoms: _50  and  _51
REMARK   23  A    between atoms: _54  and  _56
REMARK   24  A    between atoms: _56  and  _57
REMARK   25  A    between atoms: _59  and  _61
REMARK   26  A    between atoms: _61  and  _62
REMARK   27  A    between atoms: _65  and  _67
REMARK   28  A    between atoms: _67  and  _68
REMARK   29  A    between atoms: _67  and  _70
REMARK   30  A    between atoms: _70  and  _71
REMARK   31  A    between atoms: _74  and  _76
REMARK   32  A    between atoms: _76  and  _77
REMARK   33  A    between atoms: _76  and  _79
REMARK   34  A    between atoms: _79  and  _80
REMARK   35  A    between atoms: _83  and  _85
REMARK   36  A    between atoms: _85  and  _86
REMARK   37  A    between atoms: _85  and  _88
REMARK   38  A    between atoms: _88  and  _89
REMARK   39  A    between atoms: _92  and  _94
REMARK   40  A    between atoms: _94  and  _95
REMARK   41  A    between atoms: _94  and  _97
REMARK   42  A    between atoms: _100  and  _102
REMARK   43  A    between atoms: _102  and  _103
REMARK   44  A    between atoms: _102  and  _105
REMARK   45  A    between atoms: _105  and  _106
REMARK   46  A    between atoms: _109  and  _111
REMARK   47  A    between atoms: _111  and  _112
REMARK   48  A    between atoms: _114  and  _116
REMARK   49  A    between atoms: _116  and  _117
REMARK   50  A    between atoms: _119  and  _121
REMARK   51  A    between atoms: _121  and  _122
REMARK   52  A    between atoms: _121  and  _124
REMARK   53  A    between atoms: _124  and  _125
REMARK   54  A    between atoms: _128  and  _130
REMARK   55  A    between atoms: _130  and  _131
REMARK   56  A    between atoms: _133  and  _135
REMARK   57  A    between atoms: _135  and  _136
REMARK   58  A    between atoms: _138  and  _140
REMARK   59  A    between atoms: _140  and  _141
REMARK   60  A    between atoms: _140  and  _143
REMARK   61  A    between atoms: _143  and  _144
REMARK   62  A    between atoms: _150  and  _152
REMARK   63  A    between atoms: _152  and  _153
REMARK   64  A    between atoms: _152  and  _155
REMARK   65  A    between atoms: _155  and  _156
REMARK   66  A    between atoms: _159  and  _161
REMARK   67  A    between atoms: _161  and  _162
REMARK   68  A    between atoms: _161  and  _164
REMARK   69  A    between atoms: _164  and  _165
REMARK   70  A    between atoms: _168  and  _170
REMARK   71  A    between atoms: _170  and  _171
REMARK   72  A    between atoms: _170  and  _173
REMARK   73  A    between atoms: _173  and  _174
REMARK   74  A    between atoms: _178  and  _179
REMARK   75  A    between atoms: _184  and  _186
REMARK   76  A    between atoms: _186  and  _187
REMARK   77  A    between atoms: _186  and  _189
REMARK   78  A    between atoms: _192  and  _194
REMARK   79  A    between atoms: _194  and  _195
REMARK   80  A    between atoms: _194  and  _197
REMARK   81  A    between atoms: _197  and  _198
REMARK   82  A    between atoms: _203  and  _205
REMARK   83  A    between atoms: _205  and  _206
REMARK   84  A    between atoms: _205  and  _208
REMARK   85  A    between atoms: _208  and  _209
REMARK   86  A    between atoms: _212  and  _214
REMARK   87  A    between atoms: _214  and  _215
REMARK   88  A    between atoms: _217  and  _219
REMARK   89  A    between atoms: _219  and  _220
REMARK   90  A    between atoms: _219  and  _222
REMARK   91  A    between atoms: _222  and  _223
REMARK   92  A    between atoms: _223  and  _224
REMARK   93  A    between atoms: _224  and  _225
REMARK   94  A    between atoms: _234  and  _236
REMARK   95  A    between atoms: _236  and  _237
REMARK   96  A    between atoms: _236  and  _239
REMARK   97  A    between atoms: _239  and  _240
REMARK   98  A    between atoms: _245  and  _247
REMARK   99  A    between atoms: _247  and  _248
REMARK  100  A    between atoms: _247  and  _250
REMARK  101  A    between atoms: _250  and  _251
REMARK  102  A    between atoms: _251  and  _252
REMARK  103  A    between atoms: _252  and  _253
REMARK  104  A    between atoms: _262  and  _264
REMARK  105  A    between atoms: _264  and  _265
REMARK  106  A    between atoms: _264  and  _267
REMARK  107  A    between atoms: _267  and  _268
REMARK  108  A    between atoms: _271  and  _273
REMARK  109  A    between atoms: _273  and  _274
REMARK  110  A    between atoms: _273  and  _276
REMARK  111  A    between atoms: _276  and  _277
REMARK  112  A    between atoms: _280  and  _282
REMARK  113  A    between atoms: _282  and  _283
REMARK  114  A    between atoms: _282  and  _285
REMARK  115  A    between atoms: _285  and  _286
REMARK  116  A    between atoms: _289  and  _291
REMARK  117  A    between atoms: _291  and  _292
REMARK  118  A    between atoms: _291  and  _294
REMARK  119  A    between atoms: _294  and  _295
REMARK  120  A    between atoms: _298  and  _300
REMARK  121  A    between atoms: _300  and  _301
REMARK  122  A    between atoms: _303  and  _305
REMARK  123  A    between atoms: _305  and  _306
REMARK  124  A    between atoms: _309  and  _311
REMARK  125  A    between atoms: _311  and  _312
REMARK  126  A    between atoms: _311  and  _314
REMARK  127  A    between atoms: _314  and  _315
REMARK  128  A    between atoms: _318  and  _320
REMARK  129  A    between atoms: _320  and  _321
REMARK  130  A    between atoms: _320  and  _323
REMARK  131  A    between atoms: _323  and  _324
REMARK  132  A    between atoms: _327  and  _329
REMARK  133  A    between atoms: _329  and  _330
REMARK  134  A    between atoms: _329  and  _332
REMARK  135  A    between atoms: _332  and  _333
REMARK  136  A    between atoms: _336  and  _338
REMARK  137  A    between atoms: _338  and  _339
REMARK  138  A    between atoms: _338  and  _341
REMARK  139  A    between atoms: _344  and  _346
REMARK  140  A    between atoms: _346  and  _347
REMARK  141  A    between atoms: _346  and  _349
REMARK  142  A    between atoms: _349  and  _350
REMARK  143  A    between atoms: _350  and  _351
REMARK  144  A    between atoms: _351  and  _352
REMARK  145  A    between atoms: _352  and  _353
REMARK  146  A    between atoms: _357  and  _359
REMARK  147  A    between atoms: _359  and  _360
REMARK  148  A    between atoms: _359  and  _362
REMARK  149  A    between atoms: _362  and  _363
REMARK  150  A    between atoms: _363  and  _364
REMARK  151  A    between atoms: _366  and  _368
REMARK  152  A    between atoms: _368  and  _369
REMARK  153  A    between atoms: _368  and  _371
REMARK  154  A    between atoms: _371  and  _372
REMARK  155  A    between atoms: _375  and  _377
REMARK  156  A    between atoms: _377  and  _378
REMARK  157  A    between atoms: _380  and  _382
REMARK  158  A    between atoms: _382  and  _383
REMARK  159  A    between atoms: _385  and  _387
REMARK  160  A    between atoms: _387  and  _388
REMARK  161  A    between atoms: _387  and  _390
REMARK  162  A    between atoms: _390  and  _391
REMARK  163  A    between atoms: _394  and  _396
REMARK  164  A    between atoms: _396  and  _397
REMARK  165  A    between atoms: _399  and  _401
REMARK  166  A    between atoms: _401  and  _402
REMARK  167  A    between atoms: _404  and  _406
REMARK  168  A    between atoms: _406  and  _407
REMARK  169  A    between atoms: _406  and  _409
REMARK  170  A    between atoms: _409  and  _410
REMARK  171  A    between atoms: _416  and  _418
REMARK  172  A    between atoms: _418  and  _419
REMARK  173  A    between atoms: _418  and  _421
REMARK  174  A    between atoms: _421  and  _422
REMARK  175  A    between atoms: _425  and  _427
REMARK  176  A    between atoms: _427  and  _428
REMARK  177  A    between atoms: _427  and  _430
REMARK  178  A    between atoms: _430  and  _431
REMARK  179  A    between atoms: _435  and  _436
REMARK  180  A    between atoms: _441  and  _443
REMARK  181  A    between atoms: _443  and  _444
REMARK  182  A    between atoms: _443  and  _446
REMARK  183  A    between atoms: _446  and  _447
REMARK  184  A    between atoms: _451  and  _452
REMARK  185  A    between atoms: _457  and  _459
REMARK  186  A    between atoms: _459  and  _460
REMARK  187  A    between atoms: _459  and  _462
REMARK  188  A    between atoms: _465  and  _467
REMARK  189  A    between atoms: _467  and  _468
REMARK  190  A    between atoms: _467  and  _470
REMARK  191  A    between atoms: _470  and  _471
REMARK  192  A    between atoms: _476  and  _478
REMARK  193  A    between atoms: _478  and  _479
REMARK  194  A    between atoms: _478  and  _481
REMARK  195  A    between atoms: _481  and  _482
REMARK  196  A    between atoms: _485  and  _487
REMARK  197  A    between atoms: _487  and  _488
REMARK  198  A    between atoms: _487  and  _490
REMARK  199  A    between atoms: _490  and  _491
REMARK  200  A    between atoms: _494  and  _496
REMARK  201  A    between atoms: _496  and  _497
REMARK  202  A    between atoms: _499  and  _501
REMARK  203  A    between atoms: _501  and  _502
REMARK  204  A    between atoms: _501  and  _504
REMARK  205  A    between atoms: _504  and  _505
REMARK  206  A    between atoms: _505  and  _506
REMARK  207  A    between atoms: _506  and  _507
REMARK  208  A    between atoms: _516  and  _518
REMARK  209  A    between atoms: _518  and  _519
REMARK  210  A    between atoms: _518  and  _521
REMARK  211  A    between atoms: _521  and  _522
REMARK                            x       y       z     vdW  Elec       q    Type
REMARK                         _______ _______ _______ _____ _____    ______ ____
ROOT
ATOM      1  O   HOH     1      17.526  23.317   8.561  0.00  0.00    +0.000 OA
ENDROOT
TORSDOF 0
REMARK  Name = ../refined-set-2016/4djr/4djr_pocket.pdb
REMARK  211 active torsions:
REMARK  status: ('A' for Active; 'I' for Inactive)
REMARK    1  A    between atoms: _1  and  _3
REMARK    2  A    between atoms: _3  and  _4
REMARK    3  A    between atoms: _3  and  _6
REMARK    4  A    between atoms: _6  and  _7
REMARK    5  A    between atoms: _7  and  _8
REMARK    6  A    between atoms: _8  and  _9
REMARK    7  A    between atoms: _18  and  _20
REMARK    8  A    between atoms: _20  and  _21
REMARK    9  A    between atoms: _20  and  _23
REMARK   10  A    between atoms: _23  and  _24
REMARK   11  A    between atoms: _27  and  _29
REMARK   12  A    between atoms: _29  and  _30
REMARK   13  A    between atoms: _29  and  _32
REMARK   14  A    between atoms: _32  and  _33
REMARK   15  A    between atoms: _36  and  _38
REMARK   16  A    between atoms: _38  and  _39
REMARK   17  A    between atoms: _38  and  _41
REMARK   18  A    between atoms: _41  and  _42
REMARK   19  A    between atoms: _45  and  _47
REMARK   20  A    between atoms: _47  and  _48
REMARK   21  A    between atoms: _47  and  _50
REMARK   22  A    between atoms: _50  and  _51
REMARK   23  A    between atoms: _54  and  _56
REMARK   24  A    between atoms: _56  and  _57
REMARK   25  A    between atoms: _59  and  _61
REMARK   26  A    between atoms: _61  and  _62
REMARK   27  A    between atoms: _65  and  _67
REMARK   28  A    between atoms: _67  and  _68
REMARK   29  A    between atoms: _67  and  _70
REMARK   30  A    between atoms: _70  and  _71
REMARK   31  A    between atoms: _74  and  _76
REMARK   32  A    between atoms: _76  and  _77
REMARK   33  A    between atoms: _76  and  _79
REMARK   34  A    between atoms: _79  and  _80
REMARK   35  A    between atoms: _83  and  _85
REMARK   36  A    between atoms: _85  and  _86
REMARK   37  A    between atoms: _85  and  _88
REMARK   38  A    between atoms: _88  and  _89
REMARK   39  A    between atoms: _92  and  _94
REMARK   40  A    between atoms: _94  and  _95
REMARK   41  A    between atoms: _94  and  _97
REMARK   42  A    between atoms: _100  and  _102
REMARK   43  A    between atoms: _102  and  _103
REMARK   44  A    between atoms: _102  and  _105
REMARK   45  A    between atoms: _105  and  _106
REMARK   46  A    between atoms: _109  and  _111
REMARK   47  A    between atoms: _111  and  _112
REMARK   48  A    between atoms: _114  and  _116
REMARK   49  A    between atoms: _116  and  _117
REMARK   50  A    between atoms: _119  and  _121
REMARK   51  A    between atoms: _121  and  _122
REMARK   52  A    between atoms: _121  and  _124
REMARK   53  A    between atoms: _124  and  _125
REMARK   54  A    between atoms: _128  and  _130
REMARK   55  A    between atoms: _130  and  _131
REMARK   56  A    between atoms: _133  and  _135
REMARK   57  A    between atoms: _135  and  _136
REMARK   58  A    between atoms: _138  and  _140
REMARK   59  A    between atoms: _140  and  _141
REMARK   60  A    between atoms: _140  and  _143
REMARK   61  A    between atoms: _143  and  _144
REMARK   62  A    between atoms: _150  and  _152
REMARK   63  A    between atoms: _152  and  _153
REMARK   64  A    between atoms: _152  and  _155
REMARK   65  A    between atoms: _155  and  _156
REMARK   66  A    between atoms: _159  and  _161
REMARK   67  A    between atoms: _161  and  _162
REMARK   68  A    between atoms: _161  and  _164
REMARK   69  A    between atoms: _164  and  _165
REMARK   70  A    between atoms: _168  and  _170
REMARK   71  A    between atoms: _170  and  _171
REMARK   72  A    between atoms: _170  and  _173
REMARK   73  A    between atoms: _173  and  _174
REMARK   74  A    between atoms: _178  and  _179
REMARK   75  A    between atoms: _184  and  _186
REMARK   76  A    between atoms: _186  and  _187
REMARK   77  A    between atoms: _186  and  _189
REMARK   78  A    between atoms: _192  and  _194
REMARK   79  A    between atoms: _194  and  _195
REMARK   80  A    between atoms: _194  and  _197
REMARK   81  A    between atoms: _197  and  _198
REMARK   82  A    between atoms: _203  and  _205
REMARK   83  A    between atoms: _205  and  _206
REMARK   84  A    between atoms: _205  and  _208
REMARK   85  A    between atoms: _208  and  _209
REMARK   86  A    between atoms: _212  and  _214
REMARK   87  A    between atoms: _214  and  _215
REMARK   88  A    between atoms: _217  and  _219
REMARK   89  A    between atoms: _219  and  _220
REMARK   90  A    between atoms: _219  and  _222
REMARK   91  A    between atoms: _222  and  _223
REMARK   92  A    between atoms: _223  and  _224
REMARK   93  A    between atoms: _224  and  _225
REMARK   94  A    between atoms: _234  and  _236
REMARK   95  A    between atoms: _236  and  _237
REMARK   96  A    between atoms: _236  and  _239
REMARK   97  A    between atoms: _239  and  _240
REMARK   98  A    between atoms: _245  and  _247
REMARK   99  A    between atoms: _247  and  _248
REMARK  100  A    between atoms: _247  and  _250
REMARK  101  A    between atoms: _250  and  _251
REMARK  102  A    between atoms: _251  and  _252
REMARK  103  A    between atoms: _252  and  _253
REMARK  104  A    between atoms: _262  and  _264
REMARK  105  A    between atoms: _264  and  _265
REMARK  106  A    between atoms: _264  and  _267
REMARK  107  A    between atoms: _267  and  _268
REMARK  108  A    between atoms: _271  and  _273
REMARK  109  A    between atoms: _273  and  _274
REMARK  110  A    between atoms: _273  and  _276
REMARK  111  A    between atoms: _276  and  _277
REMARK  112  A    between atoms: _280  and  _282
REMARK  113  A    between atoms: _282  and  _283
REMARK  114  A    between atoms: _282  and  _285
REMARK  115  A    between atoms: _285  and  _286
REMARK  116  A    between atoms: _289  and  _291
REMARK  117  A    between atoms: _291  and  _292
REMARK  118  A    between atoms: _291  and  _294
REMARK  119  A    between atoms: _294  and  _295
REMARK  120  A    between atoms: _298  and  _300
REMARK  121  A    between atoms: _300  and  _301
REMARK  122  A    between atoms: _303  and  _305
REMARK  123  A    between atoms: _305  and  _306
REMARK  124  A    between atoms: _309  and  _311
REMARK  125  A    between atoms: _311  and  _312
REMARK  126  A    between atoms: _311  and  _314
REMARK  127  A    between atoms: _314  and  _315
REMARK  128  A    between atoms: _318  and  _320
REMARK  129  A    between atoms: _320  and  _321
REMARK  130  A    between atoms: _320  and  _323
REMARK  131  A    between atoms: _323  and  _324
REMARK  132  A    between atoms: _327  and  _329
REMARK  133  A    between atoms: _329  and  _330
REMARK  134  A    between atoms: _329  and  _332
REMARK  135  A    between atoms: _332  and  _333
REMARK  136  A    between atoms: _336  and  _338
REMARK  137  A    between atoms: _338  and  _339
REMARK  138  A    between atoms: _338  and  _341
REMARK  139  A    between atoms: _344  and  _346
REMARK  140  A    between atoms: _346  and  _347
REMARK  141  A    between atoms: _346  and  _349
REMARK  142  A    between atoms: _349  and  _350
REMARK  143  A    between atoms: _350  and  _351
REMARK  144  A    between atoms: _351  and  _352
REMARK  145  A    between atoms: _352  and  _353
REMARK  146  A    between atoms: _357  and  _359
REMARK  147  A    between atoms: _359  and  _360
REMARK  148  A    between atoms: _359  and  _362
REMARK  149  A    between atoms: _362  and  _363
REMARK  150  A    between atoms: _363  and  _364
REMARK  151  A    between atoms: _366  and  _368
REMARK  152  A    between atoms: _368  and  _369
REMARK  153  A    between atoms: _368  and  _371
REMARK  154  A    between atoms: _371  and  _372
REMARK  155  A    between atoms: _375  and  _377
REMARK  156  A    between atoms: _377  and  _378
REMARK  157  A    between atoms: _380  and  _382
REMARK  158  A    between atoms: _382  and  _383
REMARK  159  A    between atoms: _385  and  _387
REMARK  160  A    between atoms: _387  and  _388
REMARK  161  A    between atoms: _387  and  _390
REMARK  162  A    between atoms: _390  and  _391
REMARK  163  A    between atoms: _394  and  _396
REMARK  164  A    between atoms: _396  and  _397
REMARK  165  A    between atoms: _399  and  _401
REMARK  166  A    between atoms: _401  and  _402
REMARK  167  A    between atoms: _404  and  _406
REMARK  168  A    between atoms: _406  and  _407
REMARK  169  A    between atoms: _406  and  _409
REMARK  170  A    between atoms: _409  and  _410
REMARK  171  A    between atoms: _416  and  _418
REMARK  172  A    between atoms: _418  and  _419
REMARK  173  A    between atoms: _418  and  _421
REMARK  174  A    between atoms: _421  and  _422
REMARK  175  A    between atoms: _425  and  _427
REMARK  176  A    between atoms: _427  and  _428
REMARK  177  A    between atoms: _427  and  _430
REMARK  178  A    between atoms: _430  and  _431
REMARK  179  A    between atoms: _435  and  _436
REMARK  180  A    between atoms: _441  and  _443
REMARK  181  A    between atoms: _443  and  _444
REMARK  182  A    between atoms: _443  and  _446
REMARK  183  A    between atoms: _446  and  _447
REMARK  184  A    between atoms: _451  and  _452
REMARK  185  A    between atoms: _457  and  _459
REMARK  186  A    between atoms: _459  and  _460
REMARK  187  A    between atoms: _459  and  _462
REMARK  188  A    between atoms: _465  and  _467
REMARK  189  A    between atoms: _467  and  _468
REMARK  190  A    between atoms: _467  and  _470
REMARK  191  A    between atoms: _470  and  _471
REMARK  192  A    between atoms: _476  and  _478
REMARK  193  A    between atoms: _478  and  _479
REMARK  194  A    between atoms: _478  and  _481
REMARK  195  A    between atoms: _481  and  _482
REMARK  196  A    between atoms: _485  and  _487
REMARK  197  A    between atoms: _487  and  _488
REMARK  198  A    between atoms: _487  and  _490
REMARK  199  A    between atoms: _490  and  _491
REMARK  200  A    between atoms: _494  and  _496
REMARK  201  A    between atoms: _496  and  _497
REMARK  202  A    between atoms: _499  and  _501
REMARK  203  A    between atoms: _501  and  _502
REMARK  204  A    between atoms: _501  and  _504
REMARK  205  A    between atoms: _504  and  _505
REMARK  206  A    between atoms: _505  and  _506
REMARK  207  A    between atoms: _506  and  _507
REMARK  208  A    between atoms: _516  and  _518
REMARK  209  A    between atoms: _518  and  _519
REMARK  210  A    between atoms: _518  and  _521
REMARK  211  A    between atoms: _521  and  _522
REMARK                            x       y       z     vdW  Elec       q    Type
REMARK                         _______ _______ _______ _____ _____    ______ ____
ROOT
ATOM      1  O   HOH     1      16.607  39.207  20.564  0.00  0.00    +0.000 OA
ENDROOT
TORSDOF 0
