REMARK  Name = ../refined-set-2016/2byr/2byr_pocket.pdb
REMARK  228 active torsions:
REMARK  status: ('A' for Active; 'I' for Inactive)
REMARK    1  A    between atoms: _1  and  _3
REMARK    2  A    between atoms: _3  and  _4
REMARK    3  A    between atoms: _3  and  _6
REMARK    4  A    between atoms: _6  and  _7
REMARK    5  A    between atoms: _10  and  _12
REMARK    6  A    between atoms: _12  and  _13
REMARK    7  A    between atoms: _12  and  _15
REMARK    8  A    between atoms: _15  and  _16
REMARK    9  A    between atoms: _19  and  _21
REMARK   10  A    between atoms: _21  and  _22
REMARK   11  A    between atoms: _25  and  _27
REMARK   12  A    between atoms: _27  and  _28
REMARK   13  A    between atoms: _27  and  _30
REMARK   14  A    between atoms: _30  and  _31
REMARK   15  A    between atoms: _36  and  _37
REMARK   16  A    between atoms: _39  and  _41
REMARK   17  A    between atoms: _41  and  _42
REMARK   18  A    between atoms: _41  and  _44
REMARK   19  A    between atoms: _44  and  _45
REMARK   20  A    between atoms: _47  and  _49
REMARK   21  A    between atoms: _49  and  _50
REMARK   22  A    between atoms: _49  and  _52
REMARK   23  A    between atoms: _52  and  _53
REMARK   24  A    between atoms: _55  and  _57
REMARK   25  A    between atoms: _57  and  _58
REMARK   26  A    between atoms: _57  and  _60
REMARK   27  A    between atoms: _60  and  _61
REMARK   28  A    between atoms: _61  and  _62
REMARK   29  A    between atoms: _64  and  _66
REMARK   30  A    between atoms: _66  and  _67
REMARK   31  A    between atoms: _70  and  _72
REMARK   32  A    between atoms: _72  and  _73
REMARK   33  A    between atoms: _72  and  _75
REMARK   34  A    between atoms: _78  and  _80
REMARK   35  A    between atoms: _80  and  _81
REMARK   36  A    between atoms: _80  and  _83
REMARK   37  A    between atoms: _83  and  _84
REMARK   38  A    between atoms: _84  and  _85
REMARK   39  A    between atoms: _85  and  _86
REMARK   40  A    between atoms: _86  and  _87
REMARK   41  A    between atoms: _91  and  _93
REMARK   42  A    between atoms: _93  and  _94
REMARK   43  A    between atoms: _93  and  _96
REMARK   44  A    between atoms: _96  and  _97
REMARK   45  A    between atoms: _103  and  _105
REMARK   46  A    between atoms: _105  and  _106
REMARK   47  A    between atoms: _108  and  _110
REMARK   48  A    between atoms: _110  and  _111
REMARK   49  A    between atoms: _110  and  _113
REMARK   50  A    between atoms: _113  and  _114
REMARK   51  A    between atoms: _116  and  _118
REMARK   52  A    between atoms: _118  and  _119
REMARK   53  A    between atoms: _118  and  _121
REMARK   54  A    between atoms: _121  and  _122
REMARK   55  A    between atoms: _132  and  _134
REMARK   56  A    between atoms: _134  and  _135
REMARK   57  A    between atoms: _134  and  _137
REMARK   58  A    between atoms: _140  and  _142
REMARK   59  A    between atoms: _142  and  _143
REMARK   60  A    between atoms: _142  and  _145
REMARK   61  A    between atoms: _145  and  _146
REMARK   62  A    between atoms: _151  and  _152
REMARK   63  A    between atoms: _154  and  _156
REMARK   64  A    between atoms: _156  and  _157
REMARK   65  A    between atoms: _156  and  _159
REMARK   66  A    between atoms: _159  and  _160
REMARK   67  A    between atoms: _162  and  _164
REMARK   68  A    between atoms: _164  and  _165
REMARK   69  A    between atoms: _167  and  _169
REMARK   70  A    between atoms: _169  and  _170
REMARK   71  A    between atoms: _169  and  _172
REMARK   72  A    between atoms: _172  and  _173
REMARK   73  A    between atoms: _173  and  _174
REMARK   74  A    between atoms: _177  and  _179
REMARK   75  A    between atoms: _179  and  _180
REMARK   76  A    between atoms: _179  and  _182
REMARK   77  A    between atoms: _182  and  _183
REMARK   78  A    between atoms: _183  and  _184
REMARK   79  A    between atoms: _189  and  _191
REMARK   80  A    between atoms: _191  and  _192
REMARK   81  A    between atoms: _191  and  _194
REMARK   82  A    between atoms: _197  and  _199
REMARK   83  A    between atoms: _199  and  _200
REMARK   84  A    between atoms: _199  and  _202
REMARK   85  A    between atoms: _202  and  _203
REMARK   86  A    between atoms: _203  and  _204
REMARK   87  A    between atoms: _209  and  _211
REMARK   88  A    between atoms: _211  and  _212
REMARK   89  A    between atoms: _211  and  _214
REMARK   90  A    between atoms: _214  and  _215
REMARK   91  A    between atoms: _220  and  _222
REMARK   92  A    between atoms: _222  and  _223
REMARK   93  A    between atoms: _222  and  _225
REMARK   94  A    between atoms: _225  and  _226
REMARK   95  A    between atoms: _231  and  _232
REMARK   96  A    between atoms: _234  and  _236
REMARK   97  A    between atoms: _236  and  _237
REMARK   98  A    between atoms: _236  and  _239
REMARK   99  A    between atoms: _239  and  _240
REMARK  100  A    between atoms: _242  and  _244
REMARK  101  A    between atoms: _251  and  _252
REMARK  102  A    between atoms: _256  and  _258
REMARK  103  A    between atoms: _258  and  _259
REMARK  104  A    between atoms: _258  and  _261
REMARK  105  A    between atoms: _261  and  _262
REMARK  106  A    between atoms: _262  and  _263
REMARK  107  A    between atoms: _267  and  _268
REMARK  108  A    between atoms: _273  and  _275
REMARK  109  A    between atoms: _275  and  _276
REMARK  110  A    between atoms: _275  and  _278
REMARK  111  A    between atoms: _278  and  _279
REMARK  112  A    between atoms: _284  and  _285
REMARK  113  A    between atoms: _287  and  _289
REMARK  114  A    between atoms: _289  and  _290
REMARK  115  A    between atoms: _289  and  _292
REMARK  116  A    between atoms: _292  and  _293
REMARK  117  A    between atoms: _296  and  _298
REMARK  118  A    between atoms: _298  and  _299
REMARK  119  A    between atoms: _298  and  _301
REMARK  120  A    between atoms: _301  and  _302
REMARK  121  A    between atoms: _305  and  _307
REMARK  122  A    between atoms: _307  and  _308
REMARK  123  A    between atoms: _307  and  _310
REMARK  124  A    between atoms: _313  and  _315
REMARK  125  A    between atoms: _315  and  _316
REMARK  126  A    between atoms: _315  and  _318
REMARK  127  A    between atoms: _318  and  _319
REMARK  128  A    between atoms: _324  and  _326
REMARK  129  A    between atoms: _326  and  _327
REMARK  130  A    between atoms: _326  and  _329
REMARK  131  A    between atoms: _329  and  _330
REMARK  132  A    between atoms: _333  and  _335
REMARK  133  A    between atoms: _335  and  _336
REMARK  134  A    between atoms: _335  and  _338
REMARK  135  A    between atoms: _338  and  _339
REMARK  136  A    between atoms: _342  and  _344
REMARK  137  A    between atoms: _344  and  _345
REMARK  138  A    between atoms: _344  and  _347
REMARK  139  A    between atoms: _347  and  _348
REMARK  140  A    between atoms: _348  and  _349
REMARK  141  A    between atoms: _354  and  _356
REMARK  142  A    between atoms: _356  and  _357
REMARK  143  A    between atoms: _356  and  _359
REMARK  144  A    between atoms: _359  and  _360
REMARK  145  A    between atoms: _363  and  _365
REMARK  146  A    between atoms: _365  and  _366
REMARK  147  A    between atoms: _365  and  _368
REMARK  148  A    between atoms: _371  and  _373
REMARK  149  A    between atoms: _373  and  _374
REMARK  150  A    between atoms: _373  and  _376
REMARK  151  A    between atoms: _376  and  _377
REMARK  152  A    between atoms: _382  and  _383
REMARK  153  A    between atoms: _385  and  _387
REMARK  154  A    between atoms: _387  and  _388
REMARK  155  A    between atoms: _387  and  _390
REMARK  156  A    between atoms: _390  and  _391
REMARK  157  A    between atoms: _391  and  _392
REMARK  158  A    between atoms: _395  and  _397
REMARK  159  A    between atoms: _397  and  _398
REMARK  160  A    between atoms: _397  and  _400
REMARK  161  A    between atoms: _400  and  _401
REMARK  162  A    between atoms: _401  and  _402
REMARK  163  A    between atoms: _407  and  _409
REMARK  164  A    between atoms: _409  and  _410
REMARK  165  A    between atoms: _409  and  _412
REMARK  166  A    between atoms: _412  and  _413
REMARK  167  A    between atoms: _413  and  _414
REMARK  168  A    between atoms: _414  and  _415
REMARK  169  A    between atoms: _424  and  _426
REMARK  170  A    between atoms: _426  and  _427
REMARK  171  A    between atoms: _426  and  _429
REMARK  172  A    between atoms: _429  and  _430
REMARK  173  A    between atoms: _430  and  _431
REMARK  174  A    between atoms: _431  and  _432
REMARK  175  A    between atoms: _441  and  _443
REMARK  176  A    between atoms: _443  and  _444
REMARK  177  A    between atoms: _443  and  _446
REMARK  178  A    between atoms: _446  and  _447
REMARK  179  A    between atoms: _450  and  _451
REMARK  180  A    between atoms: _456  and  _458
REMARK  181  A    between atoms: _458  and  _459
REMARK  182  A    between atoms: _458  and  _461
REMARK  183  A    between atoms: _461  and  _462
REMARK  184  A    between atoms: _465  and  _467
REMARK  185  A    between atoms: _467  and  _468
REMARK  186  A    between atoms: _471  and  _473
REMARK  187  A    between atoms: _473  and  _474
REMARK  188  A    between atoms: _473  and  _476
REMARK  189  A    between atoms: _479  and  _481
REMARK  190  A    between atoms: _481  and  _482
REMARK  191  A    between atoms: _481  and  _484
REMARK  192  A    between atoms: _484  and  _485
REMARK  193  A    between atoms: _485  and  _486
REMARK  194  A    between atoms: _488  and  _490
REMARK  195  A    between atoms: _490  and  _491
REMARK  196  A    between atoms: _490  and  _493
REMARK  197  A    between atoms: _493  and  _494
REMARK  198  A    between atoms: _500  and  _502
REMARK  199  A    between atoms: _502  and  _503
REMARK  200  A    between atoms: _502  and  _505
REMARK  201  A    between atoms: _505  and  _506
REMARK  202  A    between atoms: _510  and  _511
REMARK  203  A    between atoms: _516  and  _518
REMARK  204  A    between atoms: _518  and  _519
REMARK  205  A    between atoms: _522  and  _524
REMARK  206  A    between atoms: _524  and  _525
REMARK  207  A    between atoms: _524  and  _527
REMARK  208  A    between atoms: _527  and  _528
REMARK  209  A    between atoms: _531  and  _533
REMARK  210  A    between atoms: _533  and  _534
REMARK  211  A    between atoms: _533  and  _536
REMARK  212  A    between atoms: _536  and  _537
REMARK  213  A    between atoms: _539  and  _541
REMARK  214  A    between atoms: _541  and  _542
REMARK  215  A    between atoms: _541  and  _544
REMARK  216  A    between atoms: _544  and  _545
REMARK  217  A    between atoms: _547  and  _549
REMARK  218  A    between atoms: _549  and  _550
REMARK  219  A    between atoms: _549  and  _552
REMARK  220  A    between atoms: _552  and  _553
REMARK  221  A    between atoms: _558  and  _559
REMARK  222  A    between atoms: _561  and  _563
REMARK  223  A    between atoms: _563  and  _564
REMARK  224  A    between atoms: _563  and  _566
REMARK  225  A    between atoms: _566  and  _567
REMARK  226  A    between atoms: _572  and  _573
REMARK  227  A    between atoms: _575  and  _577
REMARK  228  A    between atoms: _577  and  _578
REMARK                            x       y       z     vdW  Elec       q    Type
REMARK                         _______ _______ _______ _____ _____    ______ ____
ROOT
ATOM      1  CA  ASP A   1      10.384  -7.276  -1.810  0.00  0.00    +0.144 C 
ENDROOT
BRANCH   1   2
ATOM      2  N   ASP A   1      11.405  -8.338  -1.912  0.00  0.00    -0.239 NA
ATOM      3  H   ASP A   1      12.152  -8.234  -2.629  0.00  0.00    +0.142 HD
ENDBRANCH   1   2
BRANCH   1   4
ATOM      4  C   ASP A   1       9.192  -7.547  -2.740  0.00  0.00    +0.225 C 
ATOM      5  O   ASP A   1       8.765  -6.661  -3.493  0.00  0.00    -0.287 OA
ENDBRANCH   1   4
BRANCH   1   6
ATOM      6  CB  ASP A   1      11.006  -5.913  -2.164  0.00  0.00    +0.139 C 
BRANCH   6   7
ATOM      7  CG  ASP A   1      11.471  -5.825  -3.641  0.00  0.00    +0.367 C 
ATOM      8  OD2 ASP A   1      11.417  -4.716  -4.219  0.00  0.00    -0.246 OA
ATOM      9  OD1 ASP A   1      11.896  -6.857  -4.221  0.00  0.00    -0.246 OA
ENDBRANCH   6   7
ENDBRANCH   1   6
TORSDOF 4
REMARK  Name = ../refined-set-2016/2byr/2byr_pocket.pdb
REMARK  228 active torsions:
REMARK  status: ('A' for Active; 'I' for Inactive)
REMARK    1  A    between atoms: _1  and  _3
REMARK    2  A    between atoms: _3  and  _4
REMARK    3  A    between atoms: _3  and  _6
REMARK    4  A    between atoms: _6  and  _7
REMARK    5  A    between atoms: _10  and  _12
REMARK    6  A    between atoms: _12  and  _13
REMARK    7  A    between atoms: _12  and  _15
REMARK    8  A    between atoms: _15  and  _16
REMARK    9  A    between atoms: _19  and  _21
REMARK   10  A    between atoms: _21  and  _22
REMARK   11  A    between atoms: _25  and  _27
REMARK   12  A    between atoms: _27  and  _28
REMARK   13  A    between atoms: _27  and  _30
REMARK   14  A    between atoms: _30  and  _31
REMARK   15  A    between atoms: _36  and  _37
REMARK   16  A    between atoms: _39  and  _41
REMARK   17  A    between atoms: _41  and  _42
REMARK   18  A    between atoms: _41  and  _44
REMARK   19  A    between atoms: _44  and  _45
REMARK   20  A    between atoms: _47  and  _49
REMARK   21  A    between atoms: _49  and  _50
REMARK   22  A    between atoms: _49  and  _52
REMARK   23  A    between atoms: _52  and  _53
REMARK   24  A    between atoms: _55  and  _57
REMARK   25  A    between atoms: _57  and  _58
REMARK   26  A    between atoms: _57  and  _60
REMARK   27  A    between atoms: _60  and  _61
REMARK   28  A    between atoms: _61  and  _62
REMARK   29  A    between atoms: _64  and  _66
REMARK   30  A    between atoms: _66  and  _67
REMARK   31  A    between atoms: _70  and  _72
REMARK   32  A    between atoms: _72  and  _73
REMARK   33  A    between atoms: _72  and  _75
REMARK   34  A    between atoms: _78  and  _80
REMARK   35  A    between atoms: _80  and  _81
REMARK   36  A    between atoms: _80  and  _83
REMARK   37  A    between atoms: _83  and  _84
REMARK   38  A    between atoms: _84  and  _85
REMARK   39  A    between atoms: _85  and  _86
REMARK   40  A    between atoms: _86  and  _87
REMARK   41  A    between atoms: _91  and  _93
REMARK   42  A    between atoms: _93  and  _94
REMARK   43  A    between atoms: _93  and  _96
REMARK   44  A    between atoms: _96  and  _97
REMARK   45  A    between atoms: _103  and  _105
REMARK   46  A    between atoms: _105  and  _106
REMARK   47  A    between atoms: _108  and  _110
REMARK   48  A    between atoms: _110  and  _111
REMARK   49  A    between atoms: _110  and  _113
REMARK   50  A    between atoms: _113  and  _114
REMARK   51  A    between atoms: _116  and  _118
REMARK   52  A    between atoms: _118  and  _119
REMARK   53  A    between atoms: _118  and  _121
REMARK   54  A    between atoms: _121  and  _122
REMARK   55  A    between atoms: _132  and  _134
REMARK   56  A    between atoms: _134  and  _135
REMARK   57  A    between atoms: _134  and  _137
REMARK   58  A    between atoms: _140  and  _142
REMARK   59  A    between atoms: _142  and  _143
REMARK   60  A    between atoms: _142  and  _145
REMARK   61  A    between atoms: _145  and  _146
REMARK   62  A    between atoms: _151  and  _152
REMARK   63  A    between atoms: _154  and  _156
REMARK   64  A    between atoms: _156  and  _157
REMARK   65  A    between atoms: _156  and  _159
REMARK   66  A    between atoms: _159  and  _160
REMARK   67  A    between atoms: _162  and  _164
REMARK   68  A    between atoms: _164  and  _165
REMARK   69  A    between atoms: _167  and  _169
REMARK   70  A    between atoms: _169  and  _170
REMARK   71  A    between atoms: _169  and  _172
REMARK   72  A    between atoms: _172  and  _173
REMARK   73  A    between atoms: _173  and  _174
REMARK   74  A    between atoms: _177  and  _179
REMARK   75  A    between atoms: _179  and  _180
REMARK   76  A    between atoms: _179  and  _182
REMARK   77  A    between atoms: _182  and  _183
REMARK   78  A    between atoms: _183  and  _184
REMARK   79  A    between atoms: _189  and  _191
REMARK   80  A    between atoms: _191  and  _192
REMARK   81  A    between atoms: _191  and  _194
REMARK   82  A    between atoms: _197  and  _199
REMARK   83  A    between atoms: _199  and  _200
REMARK   84  A    between atoms: _199  and  _202
REMARK   85  A    between atoms: _202  and  _203
REMARK   86  A    between atoms: _203  and  _204
REMARK   87  A    between atoms: _209  and  _211
REMARK   88  A    between atoms: _211  and  _212
REMARK   89  A    between atoms: _211  and  _214
REMARK   90  A    between atoms: _214  and  _215
REMARK   91  A    between atoms: _220  and  _222
REMARK   92  A    between atoms: _222  and  _223
REMARK   93  A    between atoms: _222  and  _225
REMARK   94  A    between atoms: _225  and  _226
REMARK   95  A    between atoms: _231  and  _232
REMARK   96  A    between atoms: _234  and  _236
REMARK   97  A    between atoms: _236  and  _237
REMARK   98  A    between atoms: _236  and  _239
REMARK   99  A    between atoms: _239  and  _240
REMARK  100  A    between atoms: _242  and  _244
REMARK  101  A    between atoms: _251  and  _252
REMARK  102  A    between atoms: _256  and  _258
REMARK  103  A    between atoms: _258  and  _259
REMARK  104  A    between atoms: _258  and  _261
REMARK  105  A    between atoms: _261  and  _262
REMARK  106  A    between atoms: _262  and  _263
REMARK  107  A    between atoms: _267  and  _268
REMARK  108  A    between atoms: _273  and  _275
REMARK  109  A    between atoms: _275  and  _276
REMARK  110  A    between atoms: _275  and  _278
REMARK  111  A    between atoms: _278  and  _279
REMARK  112  A    between atoms: _284  and  _285
REMARK  113  A    between atoms: _287  and  _289
REMARK  114  A    between atoms: _289  and  _290
REMARK  115  A    between atoms: _289  and  _292
REMARK  116  A    between atoms: _292  and  _293
REMARK  117  A    between atoms: _296  and  _298
REMARK  118  A    between atoms: _298  and  _299
REMARK  119  A    between atoms: _298  and  _301
REMARK  120  A    between atoms: _301  and  _302
REMARK  121  A    between atoms: _305  and  _307
REMARK  122  A    between atoms: _307  and  _308
REMARK  123  A    between atoms: _307  and  _310
REMARK  124  A    between atoms: _313  and  _315
REMARK  125  A    between atoms: _315  and  _316
REMARK  126  A    between atoms: _315  and  _318
REMARK  127  A    between atoms: _318  and  _319
REMARK  128  A    between atoms: _324  and  _326
REMARK  129  A    between atoms: _326  and  _327
REMARK  130  A    between atoms: _326  and  _329
REMARK  131  A    between atoms: _329  and  _330
REMARK  132  A    between atoms: _333  and  _335
REMARK  133  A    between atoms: _335  and  _336
REMARK  134  A    between atoms: _335  and  _338
REMARK  135  A    between atoms: _338  and  _339
REMARK  136  A    between atoms: _342  and  _344
REMARK  137  A    between atoms: _344  and  _345
REMARK  138  A    between atoms: _344  and  _347
REMARK  139  A    between atoms: _347  and  _348
REMARK  140  A    between atoms: _348  and  _349
REMARK  141  A    between atoms: _354  and  _356
REMARK  142  A    between atoms: _356  and  _357
REMARK  143  A    between atoms: _356  and  _359
REMARK  144  A    between atoms: _359  and  _360
REMARK  145  A    between atoms: _363  and  _365
REMARK  146  A    between atoms: _365  and  _366
REMARK  147  A    between atoms: _365  and  _368
REMARK  148  A    between atoms: _371  and  _373
REMARK  149  A    between atoms: _373  and  _374
REMARK  150  A    between atoms: _373  and  _376
REMARK  151  A    between atoms: _376  and  _377
REMARK  152  A    between atoms: _382  and  _383
REMARK  153  A    between atoms: _385  and  _387
REMARK  154  A    between atoms: _387  and  _388
REMARK  155  A    between atoms: _387  and  _390
REMARK  156  A    between atoms: _390  and  _391
REMARK  157  A    between atoms: _391  and  _392
REMARK  158  A    between atoms: _395  and  _397
REMARK  159  A    between atoms: _397  and  _398
REMARK  160  A    between atoms: _397  and  _400
REMARK  161  A    between atoms: _400  and  _401
REMARK  162  A    between atoms: _401  and  _402
REMARK  163  A    between atoms: _407  and  _409
REMARK  164  A    between atoms: _409  and  _410
REMARK  165  A    between atoms: _409  and  _412
REMARK  166  A    between atoms: _412  and  _413
REMARK  167  A    between atoms: _413  and  _414
REMARK  168  A    between atoms: _414  and  _415
REMARK  169  A    between atoms: _424  and  _426
REMARK  170  A    between atoms: _426  and  _427
REMARK  171  A    between atoms: _426  and  _429
REMARK  172  A    between atoms: _429  and  _430
REMARK  173  A    between atoms: _430  and  _431
REMARK  174  A    between atoms: _431  and  _432
REMARK  175  A    between atoms: _441  and  _443
REMARK  176  A    between atoms: _443  and  _444
REMARK  177  A    between atoms: _443  and  _446
REMARK  178  A    between atoms: _446  and  _447
REMARK  179  A    between atoms: _450  and  _451
REMARK  180  A    between atoms: _456  and  _458
REMARK  181  A    between atoms: _458  and  _459
REMARK  182  A    between atoms: _458  and  _461
REMARK  183  A    between atoms: _461  and  _462
REMARK  184  A    between atoms: _465  and  _467
REMARK  185  A    between atoms: _467  and  _468
REMARK  186  A    between atoms: _471  and  _473
REMARK  187  A    between atoms: _473  and  _474
REMARK  188  A    between atoms: _473  and  _476
REMARK  189  A    between atoms: _479  and  _481
REMARK  190  A    between atoms: _481  and  _482
REMARK  191  A    between atoms: _481  and  _484
REMARK  192  A    between atoms: _484  and  _485
REMARK  193  A    between atoms: _485  and  _486
REMARK  194  A    between atoms: _488  and  _490
REMARK  195  A    between atoms: _490  and  _491
REMARK  196  A    between atoms: _490  and  _493
REMARK  197  A    between atoms: _493  and  _494
REMARK  198  A    between atoms: _500  and  _502
REMARK  199  A    between atoms: _502  and  _503
REMARK  200  A    between atoms: _502  and  _505
REMARK  201  A    between atoms: _505  and  _506
REMARK  202  A    between atoms: _510  and  _511
REMARK  203  A    between atoms: _516  and  _518
REMARK  204  A    between atoms: _518  and  _519
REMARK  205  A    between atoms: _522  and  _524
REMARK  206  A    between atoms: _524  and  _525
REMARK  207  A    between atoms: _524  and  _527
REMARK  208  A    between atoms: _527  and  _528
REMARK  209  A    between atoms: _531  and  _533
REMARK  210  A    between atoms: _533  and  _534
REMARK  211  A    between atoms: _533  and  _536
REMARK  212  A    between atoms: _536  and  _537
REMARK  213  A    between atoms: _539  and  _541
REMARK  214  A    between atoms: _541  and  _542
REMARK  215  A    between atoms: _541  and  _544
REMARK  216  A    between atoms: _544  and  _545
REMARK  217  A    between atoms: _547  and  _549
REMARK  218  A    between atoms: _549  and  _550
REMARK  219  A    between atoms: _549  and  _552
REMARK  220  A    between atoms: _552  and  _553
REMARK  221  A    between atoms: _558  and  _559
REMARK  222  A    between atoms: _561  and  _563
REMARK  223  A    between atoms: _563  and  _564
REMARK  224  A    between atoms: _563  and  _566
REMARK  225  A    between atoms: _566  and  _567
REMARK  226  A    between atoms: _572  and  _573
REMARK  227  A    between atoms: _575  and  _577
REMARK  228  A    between atoms: _577  and  _578
REMARK                            x       y       z     vdW  Elec       q    Type
REMARK                         _______ _______ _______ _____ _____    ______ ____
ROOT
ATOM      1  CA  TYR A   3       0.945  -4.390  -7.731  0.00  0.00    +0.153 C 
ENDROOT
BRANCH   1   4
ATOM      2  C   ALA A   2       0.907  -5.823  -5.797  0.00  0.00    +0.241 C 
ATOM      3  O   ALA A   2       0.848  -4.856  -5.057  0.00  0.00    -0.273 OA
ATOM      4  N   TYR A   3       0.900  -5.708  -7.119  0.00  0.00    -0.297 N 
ATOM      5  H   TYR A   3       0.862  -6.559  -7.716  0.00  0.00    +0.150 HD
BRANCH   2   6
ATOM      6  CA  ALA A   2       0.980  -7.206  -5.210  0.00  0.00    +0.149 C 
ATOM      7  CB  ALA A   2      -0.290  -7.493  -4.436  0.00  0.00    +0.031 C 
BRANCH   6   9
ATOM      8  C   THR A   1       3.379  -7.272  -4.821  0.00  0.00    +0.241 C 
ATOM      9  N   ALA A   2       2.148  -7.248  -4.333  0.00  0.00    -0.297 N 
ATOM     10  H   ALA A   2       2.010  -7.259  -3.302  0.00  0.00    +0.150 HD
ATOM     11  O   THR A   1       3.622  -7.505  -6.003  0.00  0.00    -0.274 OA
BRANCH   8  12
ATOM     12  CA  THR A   1       4.512  -6.973  -3.856  0.00  0.00    +0.172 C 
BRANCH  12  13
ATOM     13  N   THR A   1       5.635  -7.858  -4.128  0.00  0.00    -0.236 NA
ATOM     14  H   THR A   1       5.905  -8.023  -5.119  0.00  0.00    +0.142 HD
ENDBRANCH  12  13
BRANCH  12  15
ATOM     15  CB  THR A   1       4.939  -5.517  -4.129  0.00  0.00    +0.135 C 
ATOM     16  CG2 THR A   1       3.942  -4.519  -3.574  0.00  0.00    +0.034 C 
BRANCH  15  17
ATOM     17  OG1 THR A   1       6.237  -5.276  -3.575  0.00  0.00    -0.383 OA
ATOM     18  HG1 THR A   1       6.891  -5.892  -3.991  0.00  0.00    +0.210 HD
ENDBRANCH  15  17
ENDBRANCH  12  15
ENDBRANCH   8  12
ENDBRANCH   6   9
ENDBRANCH   2   6
ENDBRANCH   1   4
BRANCH   1  19
ATOM     19  C   TYR A   3      -0.376  -3.634  -7.721  0.00  0.00    +0.241 C 
ATOM     20  N   SER A   4      -1.483  -4.329  -7.520  0.00  0.00    -0.295 N 
ATOM     21  H   SER A   4      -1.425  -5.342  -7.293  0.00  0.00    +0.150 HD
ATOM     22  O   TYR A   3      -0.391  -2.418  -7.905  0.00  0.00    -0.273 OA
BRANCH  20  23
ATOM     23  CA  SER A   4      -2.783  -3.680  -7.616  0.00  0.00    +0.178 C 
BRANCH  23  24
ATOM     24  C   SER A   4      -3.556  -3.768  -6.301  0.00  0.00    +0.243 C 
ATOM     25  N   SER A   5      -2.842  -3.799  -5.180  0.00  0.00    -0.296 N 
ATOM     26  H   SER A   5      -1.805  -3.850  -5.231  0.00  0.00    +0.150 HD
ATOM     27  O   SER A   4      -4.779  -3.797  -6.304  0.00  0.00    -0.273 OA
BRANCH  25  28
ATOM     28  CA  SER A   5      -3.497  -3.762  -3.888  0.00  0.00    +0.166 C 
BRANCH  28  29
ATOM     29  CB  SER A   5      -4.138  -2.391  -3.677  0.00  0.00    +0.229 C 
ATOM     30  OG  SER A   5      -3.683  -1.380  -4.211  0.00  0.00    -0.286 OA
ENDBRANCH  28  29
BRANCH  28  31
ATOM     31  C   SER A   5      -2.513  -4.054  -2.753  0.00  0.00    +0.165 C 
BRANCH  31  32
ATOM     32  O   SER A   5      -1.715  -2.926  -2.482  0.00  0.00    -0.380 OA
ATOM     33  H   SER A   5      -1.087  -3.137  -1.746  0.00  0.00    +0.211 HD
ENDBRANCH  31  32
ENDBRANCH  28  31
ENDBRANCH  25  28
ENDBRANCH  23  24
BRANCH  23  34
ATOM     34  CB  SER A   4      -3.585  -4.305  -8.745  0.00  0.00    +0.166 C 
BRANCH  34  35
ATOM     35  OG  SER A   4      -3.724  -5.685  -8.503  0.00  0.00    -0.380 OA
ATOM     36  H   SER A   4      -4.246  -6.097  -9.237  0.00  0.00    +0.211 HD
ENDBRANCH  34  35
ENDBRANCH  23  34
ENDBRANCH  20  23
ENDBRANCH   1  19
BRANCH   1  37
ATOM     37  CB  TYR A   3       1.459  -4.477  -9.162  0.00  0.00    +0.055 C 
BRANCH  37  38
ATOM     38  CG  TYR A   3       2.901  -4.938  -9.296  0.00  0.00    -0.020 A 
ATOM     39  CD2 TYR A   3       3.872  -4.555  -8.374  0.00  0.00    -0.001 A 
ATOM     40  CE2 TYR A   3       5.183  -4.964  -8.506  0.00  0.00    +0.036 A 
ATOM     41  CZ  TYR A   3       5.546  -5.751  -9.571  0.00  0.00    +0.134 A 
ATOM     42  CE1 TYR A   3       4.613  -6.140 -10.504  0.00  0.00    +0.036 A 
ATOM     43  CD1 TYR A   3       3.291  -5.730 -10.364  0.00  0.00    -0.001 A 
BRANCH  41  44
ATOM     44  OH  TYR A   3       6.840  -6.141  -9.690  0.00  0.00    -0.506 OA
ATOM     45  HH  TYR A   3       7.365  -5.772  -8.936  0.00  0.00    +0.292 HD
ENDBRANCH  41  44
ENDBRANCH  37  38
ENDBRANCH   1  37
TORSDOF 19
REMARK  Name = ../refined-set-2016/2byr/2byr_pocket.pdb
REMARK  228 active torsions:
REMARK  status: ('A' for Active; 'I' for Inactive)
REMARK    1  A    between atoms: _1  and  _3
REMARK    2  A    between atoms: _3  and  _4
REMARK    3  A    between atoms: _3  and  _6
REMARK    4  A    between atoms: _6  and  _7
REMARK    5  A    between atoms: _10  and  _12
REMARK    6  A    between atoms: _12  and  _13
REMARK    7  A    between atoms: _12  and  _15
REMARK    8  A    between atoms: _15  and  _16
REMARK    9  A    between atoms: _19  and  _21
REMARK   10  A    between atoms: _21  and  _22
REMARK   11  A    between atoms: _25  and  _27
REMARK   12  A    between atoms: _27  and  _28
REMARK   13  A    between atoms: _27  and  _30
REMARK   14  A    between atoms: _30  and  _31
REMARK   15  A    between atoms: _36  and  _37
REMARK   16  A    between atoms: _39  and  _41
REMARK   17  A    between atoms: _41  and  _42
REMARK   18  A    between atoms: _41  and  _44
REMARK   19  A    between atoms: _44  and  _45
REMARK   20  A    between atoms: _47  and  _49
REMARK   21  A    between atoms: _49  and  _50
REMARK   22  A    between atoms: _49  and  _52
REMARK   23  A    between atoms: _52  and  _53
REMARK   24  A    between atoms: _55  and  _57
REMARK   25  A    between atoms: _57  and  _58
REMARK   26  A    between atoms: _57  and  _60
REMARK   27  A    between atoms: _60  and  _61
REMARK   28  A    between atoms: _61  and  _62
REMARK   29  A    between atoms: _64  and  _66
REMARK   30  A    between atoms: _66  and  _67
REMARK   31  A    between atoms: _70  and  _72
REMARK   32  A    between atoms: _72  and  _73
REMARK   33  A    between atoms: _72  and  _75
REMARK   34  A    between atoms: _78  and  _80
REMARK   35  A    between atoms: _80  and  _81
REMARK   36  A    between atoms: _80  and  _83
REMARK   37  A    between atoms: _83  and  _84
REMARK   38  A    between atoms: _84  and  _85
REMARK   39  A    between atoms: _85  and  _86
REMARK   40  A    between atoms: _86  and  _87
REMARK   41  A    between atoms: _91  and  _93
REMARK   42  A    between atoms: _93  and  _94
REMARK   43  A    between atoms: _93  and  _96
REMARK   44  A    between atoms: _96  and  _97
REMARK   45  A    between atoms: _103  and  _105
REMARK   46  A    between atoms: _105  and  _106
REMARK   47  A    between atoms: _108  and  _110
REMARK   48  A    between atoms: _110  and  _111
REMARK   49  A    between atoms: _110  and  _113
REMARK   50  A    between atoms: _113  and  _114
REMARK   51  A    between atoms: _116  and  _118
REMARK   52  A    between atoms: _118  and  _119
REMARK   53  A    between atoms: _118  and  _121
REMARK   54  A    between atoms: _121  and  _122
REMARK   55  A    between atoms: _132  and  _134
REMARK   56  A    between atoms: _134  and  _135
REMARK   57  A    between atoms: _134  and  _137
REMARK   58  A    between atoms: _140  and  _142
REMARK   59  A    between atoms: _142  and  _143
REMARK   60  A    between atoms: _142  and  _145
REMARK   61  A    between atoms: _145  and  _146
REMARK   62  A    between atoms: _151  and  _152
REMARK   63  A    between atoms: _154  and  _156
REMARK   64  A    between atoms: _156  and  _157
REMARK   65  A    between atoms: _156  and  _159
REMARK   66  A    between atoms: _159  and  _160
REMARK   67  A    between atoms: _162  and  _164
REMARK   68  A    between atoms: _164  and  _165
REMARK   69  A    between atoms: _167  and  _169
REMARK   70  A    between atoms: _169  and  _170
REMARK   71  A    between atoms: _169  and  _172
REMARK   72  A    between atoms: _172  and  _173
REMARK   73  A    between atoms: _173  and  _174
REMARK   74  A    between atoms: _177  and  _179
REMARK   75  A    between atoms: _179  and  _180
REMARK   76  A    between atoms: _179  and  _182
REMARK   77  A    between atoms: _182  and  _183
REMARK   78  A    between atoms: _183  and  _184
REMARK   79  A    between atoms: _189  and  _191
REMARK   80  A    between atoms: _191  and  _192
REMARK   81  A    between atoms: _191  and  _194
REMARK   82  A    between atoms: _197  and  _199
REMARK   83  A    between atoms: _199  and  _200
REMARK   84  A    between atoms: _199  and  _202
REMARK   85  A    between atoms: _202  and  _203
REMARK   86  A    between atoms: _203  and  _204
REMARK   87  A    between atoms: _209  and  _211
REMARK   88  A    between atoms: _211  and  _212
REMARK   89  A    between atoms: _211  and  _214
REMARK   90  A    between atoms: _214  and  _215
REMARK   91  A    between atoms: _220  and  _222
REMARK   92  A    between atoms: _222  and  _223
REMARK   93  A    between atoms: _222  and  _225
REMARK   94  A    between atoms: _225  and  _226
REMARK   95  A    between atoms: _231  and  _232
REMARK   96  A    between atoms: _234  and  _236
REMARK   97  A    between atoms: _236  and  _237
REMARK   98  A    between atoms: _236  and  _239
REMARK   99  A    between atoms: _239  and  _240
REMARK  100  A    between atoms: _242  and  _244
REMARK  101  A    between atoms: _251  and  _252
REMARK  102  A    between atoms: _256  and  _258
REMARK  103  A    between atoms: _258  and  _259
REMARK  104  A    between atoms: _258  and  _261
REMARK  105  A    between atoms: _261  and  _262
REMARK  106  A    between atoms: _262  and  _263
REMARK  107  A    between atoms: _267  and  _268
REMARK  108  A    between atoms: _273  and  _275
REMARK  109  A    between atoms: _275  and  _276
REMARK  110  A    between atoms: _275  and  _278
REMARK  111  A    between atoms: _278  and  _279
REMARK  112  A    between atoms: _284  and  _285
REMARK  113  A    between atoms: _287  and  _289
REMARK  114  A    between atoms: _289  and  _290
REMARK  115  A    between atoms: _289  and  _292
REMARK  116  A    between atoms: _292  and  _293
REMARK  117  A    between atoms: _296  and  _298
REMARK  118  A    between atoms: _298  and  _299
REMARK  119  A    between atoms: _298  and  _301
REMARK  120  A    between atoms: _301  and  _302
REMARK  121  A    between atoms: _305  and  _307
REMARK  122  A    between atoms: _307  and  _308
REMARK  123  A    between atoms: _307  and  _310
REMARK  124  A    between atoms: _313  and  _315
REMARK  125  A    between atoms: _315  and  _316
REMARK  126  A    between atoms: _315  and  _318
REMARK  127  A    between atoms: _318  and  _319
REMARK  128  A    between atoms: _324  and  _326
REMARK  129  A    between atoms: _326  and  _327
REMARK  130  A    between atoms: _326  and  _329
REMARK  131  A    between atoms: _329  and  _330
REMARK  132  A    between atoms: _333  and  _335
REMARK  133  A    between atoms: _335  and  _336
REMARK  134  A    between atoms: _335  and  _338
REMARK  135  A    between atoms: _338  and  _339
REMARK  136  A    between atoms: _342  and  _344
REMARK  137  A    between atoms: _344  and  _345
REMARK  138  A    between atoms: _344  and  _347
REMARK  139  A    between atoms: _347  and  _348
REMARK  140  A    between atoms: _348  and  _349
REMARK  141  A    between atoms: _354  and  _356
REMARK  142  A    between atoms: _356  and  _357
REMARK  143  A    between atoms: _356  and  _359
REMARK  144  A    between atoms: _359  and  _360
REMARK  145  A    between atoms: _363  and  _365
REMARK  146  A    between atoms: _365  and  _366
REMARK  147  A    between atoms: _365  and  _368
REMARK  148  A    between atoms: _371  and  _373
REMARK  149  A    between atoms: _373  and  _374
REMARK  150  A    between atoms: _373  and  _376
REMARK  151  A    between atoms: _376  and  _377
REMARK  152  A    between atoms: _382  and  _383
REMARK  153  A    between atoms: _385  and  _387
REMARK  154  A    between atoms: _387  and  _388
REMARK  155  A    between atoms: _387  and  _390
REMARK  156  A    between atoms: _390  and  _391
REMARK  157  A    between atoms: _391  and  _392
REMARK  158  A    between atoms: _395  and  _397
REMARK  159  A    between atoms: _397  and  _398
REMARK  160  A    between atoms: _397  and  _400
REMARK  161  A    between atoms: _400  and  _401
REMARK  162  A    between atoms: _401  and  _402
REMARK  163  A    between atoms: _407  and  _409
REMARK  164  A    between atoms: _409  and  _410
REMARK  165  A    between atoms: _409  and  _412
REMARK  166  A    between atoms: _412  and  _413
REMARK  167  A    between atoms: _413  and  _414
REMARK  168  A    between atoms: _414  and  _415
REMARK  169  A    between atoms: _424  and  _426
REMARK  170  A    between atoms: _426  and  _427
REMARK  171  A    between atoms: _426  and  _429
REMARK  172  A    between atoms: _429  and  _430
REMARK  173  A    between atoms: _430  and  _431
REMARK  174  A    between atoms: _431  and  _432
REMARK  175  A    between atoms: _441  and  _443
REMARK  176  A    between atoms: _443  and  _444
REMARK  177  A    between atoms: _443  and  _446
REMARK  178  A    between atoms: _446  and  _447
REMARK  179  A    between atoms: _450  and  _451
REMARK  180  A    between atoms: _456  and  _458
REMARK  181  A    between atoms: _458  and  _459
REMARK  182  A    between atoms: _458  and  _461
REMARK  183  A    between atoms: _461  and  _462
REMARK  184  A    between atoms: _465  and  _467
REMARK  185  A    between atoms: _467  and  _468
REMARK  186  A    between atoms: _471  and  _473
REMARK  187  A    between atoms: _473  and  _474
REMARK  188  A    between atoms: _473  and  _476
REMARK  189  A    between atoms: _479  and  _481
REMARK  190  A    between atoms: _481  and  _482
REMARK  191  A    between atoms: _481  and  _484
REMARK  192  A    between atoms: _484  and  _485
REMARK  193  A    between atoms: _485  and  _486
REMARK  194  A    between atoms: _488  and  _490
REMARK  195  A    between atoms: _490  and  _491
REMARK  196  A    between atoms: _490  and  _493
REMARK  197  A    between atoms: _493  and  _494
REMARK  198  A    between atoms: _500  and  _502
REMARK  199  A    between atoms: _502  and  _503
REMARK  200  A    between atoms: _502  and  _505
REMARK  201  A    between atoms: _505  and  _506
REMARK  202  A    between atoms: _510  and  _511
REMARK  203  A    between atoms: _516  and  _518
REMARK  204  A    between atoms: _518  and  _519
REMARK  205  A    between atoms: _522  and  _524
REMARK  206  A    between atoms: _524  and  _525
REMARK  207  A    between atoms: _524  and  _527
REMARK  208  A    between atoms: _527  and  _528
REMARK  209  A    between atoms: _531  and  _533
REMARK  210  A    between atoms: _533  and  _534
REMARK  211  A    between atoms: _533  and  _536
REMARK  212  A    between atoms: _536  and  _537
REMARK  213  A    between atoms: _539  and  _541
REMARK  214  A    between atoms: _541  and  _542
REMARK  215  A    between atoms: _541  and  _544
REMARK  216  A    between atoms: _544  and  _545
REMARK  217  A    between atoms: _547  and  _549
REMARK  218  A    between atoms: _549  and  _550
REMARK  219  A    between atoms: _549  and  _552
REMARK  220  A    between atoms: _552  and  _553
REMARK  221  A    between atoms: _558  and  _559
REMARK  222  A    between atoms: _561  and  _563
REMARK  223  A    between atoms: _563  and  _564
REMARK  224  A    between atoms: _563  and  _566
REMARK  225  A    between atoms: _566  and  _567
REMARK  226  A    between atoms: _572  and  _573
REMARK  227  A    between atoms: _575  and  _577
REMARK  228  A    between atoms: _577  and  _578
REMARK                            x       y       z     vdW  Elec       q    Type
REMARK                         _______ _______ _______ _____ _____    ______ ____
ROOT
ATOM      1  CA  MET A   1      -8.600  -3.957  -7.724  0.00  0.00    +0.134 C 
ENDROOT
BRANCH   1   2
ATOM      2  N   MET A   1      -7.686  -4.502  -6.720  0.00  0.00    -0.239 NA
ATOM      3  H   MET A   1      -6.665  -4.344  -6.840  0.00  0.00    +0.142 HD
ENDBRANCH   1   2
BRANCH   1   4
ATOM      4  C   MET A   1      -9.213  -5.081  -8.538  0.00  0.00    +0.224 C 
ATOM      5  O   MET A   1      -8.504  -5.857  -9.157  0.00  0.00    -0.287 OA
ENDBRANCH   1   4
BRANCH   1   6
ATOM      6  CB  MET A   1      -7.864  -3.014  -8.677  0.00  0.00    +0.037 C 
BRANCH   6   7
ATOM      7  CG  MET A   1      -7.279  -1.775  -8.007  0.00  0.00    +0.059 C 
BRANCH   7   8
ATOM      8  SD  MET A   1      -6.002  -1.004  -9.022  0.00  0.00    -0.139 S 
ATOM      9  CE  MET A   1      -5.139  -0.055  -7.764  0.00  0.00    +0.069 C 
ENDBRANCH   7   8
ENDBRANCH   6   7
ENDBRANCH   1   6
TORSDOF 5
REMARK  Name = ../refined-set-2016/2byr/2byr_pocket.pdb
REMARK  228 active torsions:
REMARK  status: ('A' for Active; 'I' for Inactive)
REMARK    1  A    between atoms: _1  and  _3
REMARK    2  A    between atoms: _3  and  _4
REMARK    3  A    between atoms: _3  and  _6
REMARK    4  A    between atoms: _6  and  _7
REMARK    5  A    between atoms: _10  and  _12
REMARK    6  A    between atoms: _12  and  _13
REMARK    7  A    between atoms: _12  and  _15
REMARK    8  A    between atoms: _15  and  _16
REMARK    9  A    between atoms: _19  and  _21
REMARK   10  A    between atoms: _21  and  _22
REMARK   11  A    between atoms: _25  and  _27
REMARK   12  A    between atoms: _27  and  _28
REMARK   13  A    between atoms: _27  and  _30
REMARK   14  A    between atoms: _30  and  _31
REMARK   15  A    between atoms: _36  and  _37
REMARK   16  A    between atoms: _39  and  _41
REMARK   17  A    between atoms: _41  and  _42
REMARK   18  A    between atoms: _41  and  _44
REMARK   19  A    between atoms: _44  and  _45
REMARK   20  A    between atoms: _47  and  _49
REMARK   21  A    between atoms: _49  and  _50
REMARK   22  A    between atoms: _49  and  _52
REMARK   23  A    between atoms: _52  and  _53
REMARK   24  A    between atoms: _55  and  _57
REMARK   25  A    between atoms: _57  and  _58
REMARK   26  A    between atoms: _57  and  _60
REMARK   27  A    between atoms: _60  and  _61
REMARK   28  A    between atoms: _61  and  _62
REMARK   29  A    between atoms: _64  and  _66
REMARK   30  A    between atoms: _66  and  _67
REMARK   31  A    between atoms: _70  and  _72
REMARK   32  A    between atoms: _72  and  _73
REMARK   33  A    between atoms: _72  and  _75
REMARK   34  A    between atoms: _78  and  _80
REMARK   35  A    between atoms: _80  and  _81
REMARK   36  A    between atoms: _80  and  _83
REMARK   37  A    between atoms: _83  and  _84
REMARK   38  A    between atoms: _84  and  _85
REMARK   39  A    between atoms: _85  and  _86
REMARK   40  A    between atoms: _86  and  _87
REMARK   41  A    between atoms: _91  and  _93
REMARK   42  A    between atoms: _93  and  _94
REMARK   43  A    between atoms: _93  and  _96
REMARK   44  A    between atoms: _96  and  _97
REMARK   45  A    between atoms: _103  and  _105
REMARK   46  A    between atoms: _105  and  _106
REMARK   47  A    between atoms: _108  and  _110
REMARK   48  A    between atoms: _110  and  _111
REMARK   49  A    between atoms: _110  and  _113
REMARK   50  A    between atoms: _113  and  _114
REMARK   51  A    between atoms: _116  and  _118
REMARK   52  A    between atoms: _118  and  _119
REMARK   53  A    between atoms: _118  and  _121
REMARK   54  A    between atoms: _121  and  _122
REMARK   55  A    between atoms: _132  and  _134
REMARK   56  A    between atoms: _134  and  _135
REMARK   57  A    between atoms: _134  and  _137
REMARK   58  A    between atoms: _140  and  _142
REMARK   59  A    between atoms: _142  and  _143
REMARK   60  A    between atoms: _142  and  _145
REMARK   61  A    between atoms: _145  and  _146
REMARK   62  A    between atoms: _151  and  _152
REMARK   63  A    between atoms: _154  and  _156
REMARK   64  A    between atoms: _156  and  _157
REMARK   65  A    between atoms: _156  and  _159
REMARK   66  A    between atoms: _159  and  _160
REMARK   67  A    between atoms: _162  and  _164
REMARK   68  A    between atoms: _164  and  _165
REMARK   69  A    between atoms: _167  and  _169
REMARK   70  A    between atoms: _169  and  _170
REMARK   71  A    between atoms: _169  and  _172
REMARK   72  A    between atoms: _172  and  _173
REMARK   73  A    between atoms: _173  and  _174
REMARK   74  A    between atoms: _177  and  _179
REMARK   75  A    between atoms: _179  and  _180
REMARK   76  A    between atoms: _179  and  _182
REMARK   77  A    between atoms: _182  and  _183
REMARK   78  A    between atoms: _183  and  _184
REMARK   79  A    between atoms: _189  and  _191
REMARK   80  A    between atoms: _191  and  _192
REMARK   81  A    between atoms: _191  and  _194
REMARK   82  A    between atoms: _197  and  _199
REMARK   83  A    between atoms: _199  and  _200
REMARK   84  A    between atoms: _199  and  _202
REMARK   85  A    between atoms: _202  and  _203
REMARK   86  A    between atoms: _203  and  _204
REMARK   87  A    between atoms: _209  and  _211
REMARK   88  A    between atoms: _211  and  _212
REMARK   89  A    between atoms: _211  and  _214
REMARK   90  A    between atoms: _214  and  _215
REMARK   91  A    between atoms: _220  and  _222
REMARK   92  A    between atoms: _222  and  _223
REMARK   93  A    between atoms: _222  and  _225
REMARK   94  A    between atoms: _225  and  _226
REMARK   95  A    between atoms: _231  and  _232
REMARK   96  A    between atoms: _234  and  _236
REMARK   97  A    between atoms: _236  and  _237
REMARK   98  A    between atoms: _236  and  _239
REMARK   99  A    between atoms: _239  and  _240
REMARK  100  A    between atoms: _242  and  _244
REMARK  101  A    between atoms: _251  and  _252
REMARK  102  A    between atoms: _256  and  _258
REMARK  103  A    between atoms: _258  and  _259
REMARK  104  A    between atoms: _258  and  _261
REMARK  105  A    between atoms: _261  and  _262
REMARK  106  A    between atoms: _262  and  _263
REMARK  107  A    between atoms: _267  and  _268
REMARK  108  A    between atoms: _273  and  _275
REMARK  109  A    between atoms: _275  and  _276
REMARK  110  A    between atoms: _275  and  _278
REMARK  111  A    between atoms: _278  and  _279
REMARK  112  A    between atoms: _284  and  _285
REMARK  113  A    between atoms: _287  and  _289
REMARK  114  A    between atoms: _289  and  _290
REMARK  115  A    between atoms: _289  and  _292
REMARK  116  A    between atoms: _292  and  _293
REMARK  117  A    between atoms: _296  and  _298
REMARK  118  A    between atoms: _298  and  _299
REMARK  119  A    between atoms: _298  and  _301
REMARK  120  A    between atoms: _301  and  _302
REMARK  121  A    between atoms: _305  and  _307
REMARK  122  A    between atoms: _307  and  _308
REMARK  123  A    between atoms: _307  and  _310
REMARK  124  A    between atoms: _313  and  _315
REMARK  125  A    between atoms: _315  and  _316
REMARK  126  A    between atoms: _315  and  _318
REMARK  127  A    between atoms: _318  and  _319
REMARK  128  A    between atoms: _324  and  _326
REMARK  129  A    between atoms: _326  and  _327
REMARK  130  A    between atoms: _326  and  _329
REMARK  131  A    between atoms: _329  and  _330
REMARK  132  A    between atoms: _333  and  _335
REMARK  133  A    between atoms: _335  and  _336
REMARK  134  A    between atoms: _335  and  _338
REMARK  135  A    between atoms: _338  and  _339
REMARK  136  A    between atoms: _342  and  _344
REMARK  137  A    between atoms: _344  and  _345
REMARK  138  A    between atoms: _344  and  _347
REMARK  139  A    between atoms: _347  and  _348
REMARK  140  A    between atoms: _348  and  _349
REMARK  141  A    between atoms: _354  and  _356
REMARK  142  A    between atoms: _356  and  _357
REMARK  143  A    between atoms: _356  and  _359
REMARK  144  A    between atoms: _359  and  _360
REMARK  145  A    between atoms: _363  and  _365
REMARK  146  A    between atoms: _365  and  _366
REMARK  147  A    between atoms: _365  and  _368
REMARK  148  A    between atoms: _371  and  _373
REMARK  149  A    between atoms: _373  and  _374
REMARK  150  A    between atoms: _373  and  _376
REMARK  151  A    between atoms: _376  and  _377
REMARK  152  A    between atoms: _382  and  _383
REMARK  153  A    between atoms: _385  and  _387
REMARK  154  A    between atoms: _387  and  _388
REMARK  155  A    between atoms: _387  and  _390
REMARK  156  A    between atoms: _390  and  _391
REMARK  157  A    between atoms: _391  and  _392
REMARK  158  A    between atoms: _395  and  _397
REMARK  159  A    between atoms: _397  and  _398
REMARK  160  A    between atoms: _397  and  _400
REMARK  161  A    between atoms: _400  and  _401
REMARK  162  A    between atoms: _401  and  _402
REMARK  163  A    between atoms: _407  and  _409
REMARK  164  A    between atoms: _409  and  _410
REMARK  165  A    between atoms: _409  and  _412
REMARK  166  A    between atoms: _412  and  _413
REMARK  167  A    between atoms: _413  and  _414
REMARK  168  A    between atoms: _414  and  _415
REMARK  169  A    between atoms: _424  and  _426
REMARK  170  A    between atoms: _426  and  _427
REMARK  171  A    between atoms: _426  and  _429
REMARK  172  A    between atoms: _429  and  _430
REMARK  173  A    between atoms: _430  and  _431
REMARK  174  A    between atoms: _431  and  _432
REMARK  175  A    between atoms: _441  and  _443
REMARK  176  A    between atoms: _443  and  _444
REMARK  177  A    between atoms: _443  and  _446
REMARK  178  A    between atoms: _446  and  _447
REMARK  179  A    between atoms: _450  and  _451
REMARK  180  A    between atoms: _456  and  _458
REMARK  181  A    between atoms: _458  and  _459
REMARK  182  A    between atoms: _458  and  _461
REMARK  183  A    between atoms: _461  and  _462
REMARK  184  A    between atoms: _465  and  _467
REMARK  185  A    between atoms: _467  and  _468
REMARK  186  A    between atoms: _471  and  _473
REMARK  187  A    between atoms: _473  and  _474
REMARK  188  A    between atoms: _473  and  _476
REMARK  189  A    between atoms: _479  and  _481
REMARK  190  A    between atoms: _481  and  _482
REMARK  191  A    between atoms: _481  and  _484
REMARK  192  A    between atoms: _484  and  _485
REMARK  193  A    between atoms: _485  and  _486
REMARK  194  A    between atoms: _488  and  _490
REMARK  195  A    between atoms: _490  and  _491
REMARK  196  A    between atoms: _490  and  _493
REMARK  197  A    between atoms: _493  and  _494
REMARK  198  A    between atoms: _500  and  _502
REMARK  199  A    between atoms: _502  and  _503
REMARK  200  A    between atoms: _502  and  _505
REMARK  201  A    between atoms: _505  and  _506
REMARK  202  A    between atoms: _510  and  _511
REMARK  203  A    between atoms: _516  and  _518
REMARK  204  A    between atoms: _518  and  _519
REMARK  205  A    between atoms: _522  and  _524
REMARK  206  A    between atoms: _524  and  _525
REMARK  207  A    between atoms: _524  and  _527
REMARK  208  A    between atoms: _527  and  _528
REMARK  209  A    between atoms: _531  and  _533
REMARK  210  A    between atoms: _533  and  _534
REMARK  211  A    between atoms: _533  and  _536
REMARK  212  A    between atoms: _536  and  _537
REMARK  213  A    between atoms: _539  and  _541
REMARK  214  A    between atoms: _541  and  _542
REMARK  215  A    between atoms: _541  and  _544
REMARK  216  A    between atoms: _544  and  _545
REMARK  217  A    between atoms: _547  and  _549
REMARK  218  A    between atoms: _549  and  _550
REMARK  219  A    between atoms: _549  and  _552
REMARK  220  A    between atoms: _552  and  _553
REMARK  221  A    between atoms: _558  and  _559
REMARK  222  A    between atoms: _561  and  _563
REMARK  223  A    between atoms: _563  and  _564
REMARK  224  A    between atoms: _563  and  _566
REMARK  225  A    between atoms: _566  and  _567
REMARK  226  A    between atoms: _572  and  _573
REMARK  227  A    between atoms: _575  and  _577
REMARK  228  A    between atoms: _577  and  _578
REMARK                            x       y       z     vdW  Elec       q    Type
REMARK                         _______ _______ _______ _____ _____    ______ ____
ROOT
ATOM      1  C   SER A   6       9.212  -5.567  -7.222  0.00  0.00    +0.243 C 
ATOM      2  N   TRP A   7       9.241  -4.776  -6.163  0.00  0.00    -0.297 N 
ATOM      3  H   TRP A   7       9.459  -5.175  -5.227  0.00  0.00    +0.150 HD
ATOM      4  O   SER A   6       8.848  -5.184  -8.324  0.00  0.00    -0.273 OA
ENDROOT
BRANCH   1   5
ATOM      5  CA  SER A   6       9.667  -6.996  -7.005  0.00  0.00    +0.178 C 
BRANCH   5   8
ATOM      6  C   GLY A   5       7.546  -8.050  -7.494  0.00  0.00    +0.243 C 
ATOM      7  O   GLY A   5       6.973  -7.448  -6.600  0.00  0.00    -0.273 OA
ATOM      8  N   SER A   6       8.834  -7.903  -7.761  0.00  0.00    -0.295 N 
ATOM      9  H   SER A   6       9.257  -8.454  -8.535  0.00  0.00    +0.150 HD
BRANCH   6  10
ATOM     10  CA  GLY A   5       6.787  -9.006  -8.370  0.00  0.00    +0.176 C 
BRANCH  10  12
ATOM     11  C   PHE A   4       4.537  -9.779  -8.729  0.00  0.00    +0.241 C 
ATOM     12  N   GLY A   5       5.386  -9.052  -8.018  0.00  0.00    -0.295 N 
ATOM     13  H   GLY A   5       5.042  -8.510  -7.200  0.00  0.00    +0.150 HD
ATOM     14  O   PHE A   4       4.866 -10.388  -9.739  0.00  0.00    -0.273 OA
BRANCH  11  15
ATOM     15  CA  PHE A   4       3.117  -9.846  -8.225  0.00  0.00    +0.153 C 
BRANCH  15  18
ATOM     16  C   LYS A   3       1.209  -8.992  -9.471  0.00  0.00    +0.241 C 
ATOM     17  O   LYS A   3       0.962  -8.126  -8.630  0.00  0.00    -0.273 OA
ATOM     18  N   PHE A   4       2.206  -9.856  -9.358  0.00  0.00    -0.297 N 
ATOM     19  H   PHE A   4       2.342 -10.566 -10.105  0.00  0.00    +0.150 HD
BRANCH  16  20
ATOM     20  CA  LYS A   3       0.360  -9.143 -10.712  0.00  0.00    +0.149 C 
BRANCH  20  23
ATOM     21  C   VAL A   2      -1.915  -9.847 -10.208  0.00  0.00    +0.241 C 
ATOM     22  O   VAL A   2      -1.626 -11.048 -10.242  0.00  0.00    -0.273 OA
ATOM     23  N   LYS A   3      -1.032  -8.874 -10.417  0.00  0.00    -0.297 N 
ATOM     24  H   LYS A   3      -1.353  -7.886 -10.367  0.00  0.00    +0.150 HD
BRANCH  21  25
ATOM     25  CA  VAL A   2      -3.356  -9.388  -9.948  0.00  0.00    +0.148 C 
BRANCH  25  27
ATOM     26  C   ALA A   1      -5.357  -9.694 -11.275  0.00  0.00    +0.238 C 
ATOM     27  N   VAL A   2      -4.287 -10.223 -10.697  0.00  0.00    -0.297 N 
ATOM     28  H   VAL A   2      -4.110 -11.245 -10.779  0.00  0.00    +0.150 HD
ATOM     29  O   ALA A   1      -5.737  -8.541 -11.064  0.00  0.00    -0.274 OA
BRANCH  26  30
ATOM     30  CA  ALA A   1      -6.125 -10.601 -12.213  0.00  0.00    +0.145 C 
ATOM     31  CB  ALA A   1      -5.743 -10.332 -13.646  0.00  0.00    +0.028 C 
BRANCH  30  32
ATOM     32  N   ALA A   1      -7.533 -10.370 -12.038  0.00  0.00    -0.238 NA
ATOM     33  H   ALA A   1      -7.880  -9.390 -12.010  0.00  0.00    +0.142 HD
ENDBRANCH  30  32
ENDBRANCH  26  30
ENDBRANCH  25  27
BRANCH  25  34
ATOM     34  CB  VAL A   2      -3.724  -9.308  -8.430  0.00  0.00    +0.027 C 
ATOM     35  CG2 VAL A   2      -2.526  -8.852  -7.595  0.00  0.00    +0.002 C 
ATOM     36  CG1 VAL A   2      -4.273 -10.599  -7.929  0.00  0.00    +0.002 C 
ENDBRANCH  25  34
ENDBRANCH  21  25
ENDBRANCH  20  23
BRANCH  20  37
ATOM     37  CB  LYS A   3       0.857  -8.211 -11.819  0.00  0.00    +0.029 C 
BRANCH  37  38
ATOM     38  CG  LYS A   3       0.272  -8.567 -13.176  0.00  0.00    +0.000 C 
BRANCH  38  39
ATOM     39  CD  LYS A   3       0.511  -7.480 -14.218  0.00  0.00    -0.024 C 
BRANCH  39  40
ATOM     40  CE  LYS A   3      -0.343  -7.703 -15.491  0.00  0.00    -0.086 C 
BRANCH  40  41
ATOM     41  NZ  LYS A   3      -1.696  -8.371 -15.237  0.00  0.00    +0.380 N 
ATOM     42  HZ1 LYS A   3      -2.259  -7.778 -14.594  0.00  0.00    -0.089 HD
ATOM     43  HZ2 LYS A   3      -1.545  -9.305 -14.806  0.00  0.00    -0.089 HD
ATOM     44  HZ3 LYS A   3      -2.201  -8.482 -16.139  0.00  0.00    -0.089 HD
ENDBRANCH  40  41
ENDBRANCH  39  40
ENDBRANCH  38  39
ENDBRANCH  37  38
ENDBRANCH  20  37
ENDBRANCH  16  20
ENDBRANCH  15  18
BRANCH  15  45
ATOM     45  CB  PHE A   4       2.978 -11.123  -7.416  0.00  0.00    +0.055 C 
BRANCH  45  46
ATOM     46  CG  PHE A   4       1.701 -11.236  -6.651  0.00  0.00    -0.020 A 
ATOM     47  CD2 PHE A   4       1.657 -10.897  -5.305  0.00  0.00    -0.004 A 
ATOM     48  CE2 PHE A   4       0.502 -11.030  -4.578  0.00  0.00    -0.000 A 
ATOM     49  CZ  PHE A   4      -0.635 -11.516  -5.185  0.00  0.00    -0.000 A 
ATOM     50  CE1 PHE A   4      -0.605 -11.874  -6.533  0.00  0.00    -0.000 A 
ATOM     51  CD1 PHE A   4       0.566 -11.741  -7.253  0.00  0.00    -0.004 A 
ENDBRANCH  45  46
ENDBRANCH  15  45
ENDBRANCH  11  15
ENDBRANCH  10  12
ENDBRANCH   6  10
ENDBRANCH   5   8
BRANCH   5  52
ATOM     52  CB  SER A   6      11.126  -7.121  -7.428  0.00  0.00    +0.166 C 
BRANCH  52  53
ATOM     53  OG  SER A   6      11.898  -6.085  -6.847  0.00  0.00    -0.380 OA
ATOM     54  H   SER A   6      11.841  -6.146  -5.861  0.00  0.00    +0.211 HD
ENDBRANCH  52  53
ENDBRANCH   5  52
ENDBRANCH   1   5
BRANCH   2  55
ATOM     55  CA  TRP A   7       8.974  -3.370  -6.294  0.00  0.00    +0.153 C 
BRANCH  55  56
ATOM     56  C   TRP A   7      10.141  -2.617  -6.929  0.00  0.00    +0.241 C 
ATOM     57  N   VAL A   8      11.385  -2.985  -6.613  0.00  0.00    -0.297 N 
ATOM     58  H   VAL A   8      11.537  -3.855  -6.063  0.00  0.00    +0.150 HD
ATOM     59  O   TRP A   7       9.900  -1.708  -7.703  0.00  0.00    -0.273 OA
BRANCH  57  60
ATOM     60  CA  VAL A   8      12.547  -2.178  -7.031  0.00  0.00    +0.149 C 
BRANCH  60  61
ATOM     61  C   VAL A   8      13.614  -2.871  -7.849  0.00  0.00    +0.241 C 
ATOM     62  N   TYR A   9      13.591  -4.194  -7.936  0.00  0.00    -0.297 N 
ATOM     63  H   TYR A   9      12.838  -4.730  -7.459  0.00  0.00    +0.150 HD
ATOM     64  O   VAL A   8      14.469  -2.200  -8.394  0.00  0.00    -0.273 OA
BRANCH  62  65
ATOM     65  CA  TYR A   9      14.609  -4.899  -8.692  0.00  0.00    +0.153 C 
BRANCH  65  66
ATOM     66  C   TYR A   9      14.112  -5.277 -10.075  0.00  0.00    +0.241 C 
ATOM     67  O   TYR A   9      12.966  -5.680 -10.230  0.00  0.00    -0.273 OA
ATOM     68  N   SER A  10      14.990  -5.171 -11.072  0.00  0.00    -0.295 N 
ATOM     69  H   SER A  10      15.918  -4.742 -10.883  0.00  0.00    +0.150 HD
BRANCH  68  70
ATOM     70  CA  SER A  10      14.688  -5.639 -12.420  0.00  0.00    +0.178 C 
BRANCH  70  71
ATOM     71  C   SER A  10      14.982  -7.133 -12.538  0.00  0.00    +0.243 C 
ATOM     72  O   SER A  10      15.468  -7.753 -11.595  0.00  0.00    -0.273 OA
ATOM     73  N   GLY A  11      14.680  -7.697 -13.705  0.00  0.00    -0.296 N 
ATOM     74  H   GLY A  11      14.221  -7.119 -14.438  0.00  0.00    +0.150 HD
BRANCH  73  75
ATOM     75  CA  GLY A  11      14.969  -9.093 -13.992  0.00  0.00    +0.163 C 
BRANCH  75  76
ATOM     76  C   GLY A  11      16.461  -9.409 -14.044  0.00  0.00    +0.229 C 
ATOM     77  O   GLY A  11      16.862 -10.573 -13.955  0.00  0.00    -0.286 OA
ENDBRANCH  75  76
ENDBRANCH  73  75
ENDBRANCH  70  71
BRANCH  70  78
ATOM     78  CB  SER A  10      15.495  -4.882 -13.462  0.00  0.00    +0.166 C 
BRANCH  78  79
ATOM     79  OG  SER A  10      16.822  -5.372 -13.532  0.00  0.00    -0.380 OA
ATOM     80  H   SER A  10      17.260  -5.263 -12.651  0.00  0.00    +0.211 HD
ENDBRANCH  78  79
ENDBRANCH  70  78
ENDBRANCH  68  70
ENDBRANCH  65  66
BRANCH  65  81
ATOM     81  CB  TYR A   9      15.047  -6.153  -7.954  0.00  0.00    +0.055 C 
BRANCH  81  82
ATOM     82  CG  TYR A   9      15.856  -5.909  -6.706  0.00  0.00    -0.020 A 
ATOM     83  CD2 TYR A   9      15.308  -6.139  -5.458  0.00  0.00    -0.001 A 
ATOM     84  CE2 TYR A   9      16.039  -5.937  -4.305  0.00  0.00    +0.036 A 
ATOM     85  CZ  TYR A   9      17.343  -5.516  -4.390  0.00  0.00    +0.134 A 
ATOM     86  CE1 TYR A   9      17.925  -5.287  -5.620  0.00  0.00    +0.036 A 
ATOM     87  CD1 TYR A   9      17.179  -5.487  -6.772  0.00  0.00    -0.001 A 
BRANCH  85  88
ATOM     88  OH  TYR A   9      18.041  -5.332  -3.226  0.00  0.00    -0.506 OA
ATOM     89  HH  TYR A   9      18.960  -5.030  -3.438  0.00  0.00    +0.292 HD
ENDBRANCH  85  88
ENDBRANCH  81  82
ENDBRANCH  65  81
ENDBRANCH  62  65
ENDBRANCH  60  61
BRANCH  60  90
ATOM     90  CB  VAL A   8      13.267  -1.526  -5.815  0.00  0.00    +0.027 C 
ATOM     91  CG2 VAL A   8      13.775  -2.588  -4.830  0.00  0.00    +0.002 C 
ATOM     92  CG1 VAL A   8      12.328  -0.540  -5.116  0.00  0.00    +0.002 C 
ENDBRANCH  60  90
ENDBRANCH  57  60
ENDBRANCH  55  56
BRANCH  55  93
ATOM     93  CB  TRP A   7       8.641  -2.749  -4.941  0.00  0.00    +0.057 C 
BRANCH  93  94
ATOM     94  CG  TRP A   7       8.063  -1.384  -5.095  0.00  0.00    -0.002 A 
ATOM     95  CD1 TRP A   7       8.641  -0.206  -4.748  0.00  0.00    +0.068 A 
ATOM     96  NE1 TRP A   7       7.809   0.837  -5.060  0.00  0.00    -0.352 N 
ATOM     97  HE1 TRP A   7       8.011   1.843  -4.890  0.00  0.00    +0.166 HD
ATOM     98  CE2 TRP A   7       6.670   0.340  -5.631  0.00  0.00    +0.056 A 
ATOM     99  CZ2 TRP A   7       5.549   1.001  -6.109  0.00  0.00    +0.017 A 
ATOM    100  CH2 TRP A   7       4.553   0.244  -6.650  0.00  0.00    +0.001 A 
ATOM    101  CZ3 TRP A   7       4.639  -1.157  -6.703  0.00  0.00    +0.000 A 
ATOM    102  CE3 TRP A   7       5.760  -1.817  -6.226  0.00  0.00    +0.001 A 
ATOM    103  CD2 TRP A   7       6.800  -1.057  -5.677  0.00  0.00    +0.013 A 
ENDBRANCH  93  94
ENDBRANCH  55  93
ENDBRANCH   2  55
TORSDOF 40
REMARK  Name = ../refined-set-2016/2byr/2byr_pocket.pdb
REMARK  228 active torsions:
REMARK  status: ('A' for Active; 'I' for Inactive)
REMARK    1  A    between atoms: _1  and  _3
REMARK    2  A    between atoms: _3  and  _4
REMARK    3  A    between atoms: _3  and  _6
REMARK    4  A    between atoms: _6  and  _7
REMARK    5  A    between atoms: _10  and  _12
REMARK    6  A    between atoms: _12  and  _13
REMARK    7  A    between atoms: _12  and  _15
REMARK    8  A    between atoms: _15  and  _16
REMARK    9  A    between atoms: _19  and  _21
REMARK   10  A    between atoms: _21  and  _22
REMARK   11  A    between atoms: _25  and  _27
REMARK   12  A    between atoms: _27  and  _28
REMARK   13  A    between atoms: _27  and  _30
REMARK   14  A    between atoms: _30  and  _31
REMARK   15  A    between atoms: _36  and  _37
REMARK   16  A    between atoms: _39  and  _41
REMARK   17  A    between atoms: _41  and  _42
REMARK   18  A    between atoms: _41  and  _44
REMARK   19  A    between atoms: _44  and  _45
REMARK   20  A    between atoms: _47  and  _49
REMARK   21  A    between atoms: _49  and  _50
REMARK   22  A    between atoms: _49  and  _52
REMARK   23  A    between atoms: _52  and  _53
REMARK   24  A    between atoms: _55  and  _57
REMARK   25  A    between atoms: _57  and  _58
REMARK   26  A    between atoms: _57  and  _60
REMARK   27  A    between atoms: _60  and  _61
REMARK   28  A    between atoms: _61  and  _62
REMARK   29  A    between atoms: _64  and  _66
REMARK   30  A    between atoms: _66  and  _67
REMARK   31  A    between atoms: _70  and  _72
REMARK   32  A    between atoms: _72  and  _73
REMARK   33  A    between atoms: _72  and  _75
REMARK   34  A    between atoms: _78  and  _80
REMARK   35  A    between atoms: _80  and  _81
REMARK   36  A    between atoms: _80  and  _83
REMARK   37  A    between atoms: _83  and  _84
REMARK   38  A    between atoms: _84  and  _85
REMARK   39  A    between atoms: _85  and  _86
REMARK   40  A    between atoms: _86  and  _87
REMARK   41  A    between atoms: _91  and  _93
REMARK   42  A    between atoms: _93  and  _94
REMARK   43  A    between atoms: _93  and  _96
REMARK   44  A    between atoms: _96  and  _97
REMARK   45  A    between atoms: _103  and  _105
REMARK   46  A    between atoms: _105  and  _106
REMARK   47  A    between atoms: _108  and  _110
REMARK   48  A    between atoms: _110  and  _111
REMARK   49  A    between atoms: _110  and  _113
REMARK   50  A    between atoms: _113  and  _114
REMARK   51  A    between atoms: _116  and  _118
REMARK   52  A    between atoms: _118  and  _119
REMARK   53  A    between atoms: _118  and  _121
REMARK   54  A    between atoms: _121  and  _122
REMARK   55  A    between atoms: _132  and  _134
REMARK   56  A    between atoms: _134  and  _135
REMARK   57  A    between atoms: _134  and  _137
REMARK   58  A    between atoms: _140  and  _142
REMARK   59  A    between atoms: _142  and  _143
REMARK   60  A    between atoms: _142  and  _145
REMARK   61  A    between atoms: _145  and  _146
REMARK   62  A    between atoms: _151  and  _152
REMARK   63  A    between atoms: _154  and  _156
REMARK   64  A    between atoms: _156  and  _157
REMARK   65  A    between atoms: _156  and  _159
REMARK   66  A    between atoms: _159  and  _160
REMARK   67  A    between atoms: _162  and  _164
REMARK   68  A    between atoms: _164  and  _165
REMARK   69  A    between atoms: _167  and  _169
REMARK   70  A    between atoms: _169  and  _170
REMARK   71  A    between atoms: _169  and  _172
REMARK   72  A    between atoms: _172  and  _173
REMARK   73  A    between atoms: _173  and  _174
REMARK   74  A    between atoms: _177  and  _179
REMARK   75  A    between atoms: _179  and  _180
REMARK   76  A    between atoms: _179  and  _182
REMARK   77  A    between atoms: _182  and  _183
REMARK   78  A    between atoms: _183  and  _184
REMARK   79  A    between atoms: _189  and  _191
REMARK   80  A    between atoms: _191  and  _192
REMARK   81  A    between atoms: _191  and  _194
REMARK   82  A    between atoms: _197  and  _199
REMARK   83  A    between atoms: _199  and  _200
REMARK   84  A    between atoms: _199  and  _202
REMARK   85  A    between atoms: _202  and  _203
REMARK   86  A    between atoms: _203  and  _204
REMARK   87  A    between atoms: _209  and  _211
REMARK   88  A    between atoms: _211  and  _212
REMARK   89  A    between atoms: _211  and  _214
REMARK   90  A    between atoms: _214  and  _215
REMARK   91  A    between atoms: _220  and  _222
REMARK   92  A    between atoms: _222  and  _223
REMARK   93  A    between atoms: _222  and  _225
REMARK   94  A    between atoms: _225  and  _226
REMARK   95  A    between atoms: _231  and  _232
REMARK   96  A    between atoms: _234  and  _236
REMARK   97  A    between atoms: _236  and  _237
REMARK   98  A    between atoms: _236  and  _239
REMARK   99  A    between atoms: _239  and  _240
REMARK  100  A    between atoms: _242  and  _244
REMARK  101  A    between atoms: _251  and  _252
REMARK  102  A    between atoms: _256  and  _258
REMARK  103  A    between atoms: _258  and  _259
REMARK  104  A    between atoms: _258  and  _261
REMARK  105  A    between atoms: _261  and  _262
REMARK  106  A    between atoms: _262  and  _263
REMARK  107  A    between atoms: _267  and  _268
REMARK  108  A    between atoms: _273  and  _275
REMARK  109  A    between atoms: _275  and  _276
REMARK  110  A    between atoms: _275  and  _278
REMARK  111  A    between atoms: _278  and  _279
REMARK  112  A    between atoms: _284  and  _285
REMARK  113  A    between atoms: _287  and  _289
REMARK  114  A    between atoms: _289  and  _290
REMARK  115  A    between atoms: _289  and  _292
REMARK  116  A    between atoms: _292  and  _293
REMARK  117  A    between atoms: _296  and  _298
REMARK  118  A    between atoms: _298  and  _299
REMARK  119  A    between atoms: _298  and  _301
REMARK  120  A    between atoms: _301  and  _302
REMARK  121  A    between atoms: _305  and  _307
REMARK  122  A    between atoms: _307  and  _308
REMARK  123  A    between atoms: _307  and  _310
REMARK  124  A    between atoms: _313  and  _315
REMARK  125  A    between atoms: _315  and  _316
REMARK  126  A    between atoms: _315  and  _318
REMARK  127  A    between atoms: _318  and  _319
REMARK  128  A    between atoms: _324  and  _326
REMARK  129  A    between atoms: _326  and  _327
REMARK  130  A    between atoms: _326  and  _329
REMARK  131  A    between atoms: _329  and  _330
REMARK  132  A    between atoms: _333  and  _335
REMARK  133  A    between atoms: _335  and  _336
REMARK  134  A    between atoms: _335  and  _338
REMARK  135  A    between atoms: _338  and  _339
REMARK  136  A    between atoms: _342  and  _344
REMARK  137  A    between atoms: _344  and  _345
REMARK  138  A    between atoms: _344  and  _347
REMARK  139  A    between atoms: _347  and  _348
REMARK  140  A    between atoms: _348  and  _349
REMARK  141  A    between atoms: _354  and  _356
REMARK  142  A    between atoms: _356  and  _357
REMARK  143  A    between atoms: _356  and  _359
REMARK  144  A    between atoms: _359  and  _360
REMARK  145  A    between atoms: _363  and  _365
REMARK  146  A    between atoms: _365  and  _366
REMARK  147  A    between atoms: _365  and  _368
REMARK  148  A    between atoms: _371  and  _373
REMARK  149  A    between atoms: _373  and  _374
REMARK  150  A    between atoms: _373  and  _376
REMARK  151  A    between atoms: _376  and  _377
REMARK  152  A    between atoms: _382  and  _383
REMARK  153  A    between atoms: _385  and  _387
REMARK  154  A    between atoms: _387  and  _388
REMARK  155  A    between atoms: _387  and  _390
REMARK  156  A    between atoms: _390  and  _391
REMARK  157  A    between atoms: _391  and  _392
REMARK  158  A    between atoms: _395  and  _397
REMARK  159  A    between atoms: _397  and  _398
REMARK  160  A    between atoms: _397  and  _400
REMARK  161  A    between atoms: _400  and  _401
REMARK  162  A    between atoms: _401  and  _402
REMARK  163  A    between atoms: _407  and  _409
REMARK  164  A    between atoms: _409  and  _410
REMARK  165  A    between atoms: _409  and  _412
REMARK  166  A    between atoms: _412  and  _413
REMARK  167  A    between atoms: _413  and  _414
REMARK  168  A    between atoms: _414  and  _415
REMARK  169  A    between atoms: _424  and  _426
REMARK  170  A    between atoms: _426  and  _427
REMARK  171  A    between atoms: _426  and  _429
REMARK  172  A    between atoms: _429  and  _430
REMARK  173  A    between atoms: _430  and  _431
REMARK  174  A    between atoms: _431  and  _432
REMARK  175  A    between atoms: _441  and  _443
REMARK  176  A    between atoms: _443  and  _444
REMARK  177  A    between atoms: _443  and  _446
REMARK  178  A    between atoms: _446  and  _447
REMARK  179  A    between atoms: _450  and  _451
REMARK  180  A    between atoms: _456  and  _458
REMARK  181  A    between atoms: _458  and  _459
REMARK  182  A    between atoms: _458  and  _461
REMARK  183  A    between atoms: _461  and  _462
REMARK  184  A    between atoms: _465  and  _467
REMARK  185  A    between atoms: _467  and  _468
REMARK  186  A    between atoms: _471  and  _473
REMARK  187  A    between atoms: _473  and  _474
REMARK  188  A    between atoms: _473  and  _476
REMARK  189  A    between atoms: _479  and  _481
REMARK  190  A    between atoms: _481  and  _482
REMARK  191  A    between atoms: _481  and  _484
REMARK  192  A    between atoms: _484  and  _485
REMARK  193  A    between atoms: _485  and  _486
REMARK  194  A    between atoms: _488  and  _490
REMARK  195  A    between atoms: _490  and  _491
REMARK  196  A    between atoms: _490  and  _493
REMARK  197  A    between atoms: _493  and  _494
REMARK  198  A    between atoms: _500  and  _502
REMARK  199  A    between atoms: _502  and  _503
REMARK  200  A    between atoms: _502  and  _505
REMARK  201  A    between atoms: _505  and  _506
REMARK  202  A    between atoms: _510  and  _511
REMARK  203  A    between atoms: _516  and  _518
REMARK  204  A    between atoms: _518  and  _519
REMARK  205  A    between atoms: _522  and  _524
REMARK  206  A    between atoms: _524  and  _525
REMARK  207  A    between atoms: _524  and  _527
REMARK  208  A    between atoms: _527  and  _528
REMARK  209  A    between atoms: _531  and  _533
REMARK  210  A    between atoms: _533  and  _534
REMARK  211  A    between atoms: _533  and  _536
REMARK  212  A    between atoms: _536  and  _537
REMARK  213  A    between atoms: _539  and  _541
REMARK  214  A    between atoms: _541  and  _542
REMARK  215  A    between atoms: _541  and  _544
REMARK  216  A    between atoms: _544  and  _545
REMARK  217  A    between atoms: _547  and  _549
REMARK  218  A    between atoms: _549  and  _550
REMARK  219  A    between atoms: _549  and  _552
REMARK  220  A    between atoms: _552  and  _553
REMARK  221  A    between atoms: _558  and  _559
REMARK  222  A    between atoms: _561  and  _563
REMARK  223  A    between atoms: _563  and  _564
REMARK  224  A    between atoms: _563  and  _566
REMARK  225  A    between atoms: _566  and  _567
REMARK  226  A    between atoms: _572  and  _573
REMARK  227  A    between atoms: _575  and  _577
REMARK  228  A    between atoms: _577  and  _578
REMARK                            x       y       z     vdW  Elec       q    Type
REMARK                         _______ _______ _______ _____ _____    ______ ____
ROOT
ATOM      1  CA  GLU A   1      18.754  -8.712 -10.253  0.00  0.00    +0.134 C 
ENDROOT
BRANCH   1   2
ATOM      2  N   GLU A   1      18.387  -8.485 -11.652  0.00  0.00    -0.239 NA
ATOM      3  H   GLU A   1      17.459  -8.070 -11.872  0.00  0.00    +0.142 HD
ENDBRANCH   1   2
BRANCH   1   4
ATOM      4  C   GLU A   1      17.921  -9.821  -9.603  0.00  0.00    +0.224 C 
ATOM      5  O   GLU A   1      18.443 -10.644  -8.861  0.00  0.00    -0.287 OA
ENDBRANCH   1   4
BRANCH   1   6
ATOM      6  CB  GLU A   1      18.593  -7.424  -9.447  0.00  0.00    +0.037 C 
BRANCH   6   7
ATOM      7  CG  GLU A   1      19.605  -6.340  -9.769  0.00  0.00    +0.116 C 
BRANCH   7   8
ATOM      8  CD  GLU A   1      19.097  -5.253 -10.706  0.00  0.00    +0.365 C 
ATOM      9  OE2 GLU A   1      17.862  -5.048 -10.833  0.00  0.00    -0.246 OA
ATOM     10  OE1 GLU A   1      19.964  -4.578 -11.298  0.00  0.00    -0.246 OA
ENDBRANCH   7   8
ENDBRANCH   6   7
ENDBRANCH   1   6
TORSDOF 5
REMARK  Name = ../refined-set-2016/2byr/2byr_pocket.pdb
REMARK  228 active torsions:
REMARK  status: ('A' for Active; 'I' for Inactive)
REMARK    1  A    between atoms: _1  and  _3
REMARK    2  A    between atoms: _3  and  _4
REMARK    3  A    between atoms: _3  and  _6
REMARK    4  A    between atoms: _6  and  _7
REMARK    5  A    between atoms: _10  and  _12
REMARK    6  A    between atoms: _12  and  _13
REMARK    7  A    between atoms: _12  and  _15
REMARK    8  A    between atoms: _15  and  _16
REMARK    9  A    between atoms: _19  and  _21
REMARK   10  A    between atoms: _21  and  _22
REMARK   11  A    between atoms: _25  and  _27
REMARK   12  A    between atoms: _27  and  _28
REMARK   13  A    between atoms: _27  and  _30
REMARK   14  A    between atoms: _30  and  _31
REMARK   15  A    between atoms: _36  and  _37
REMARK   16  A    between atoms: _39  and  _41
REMARK   17  A    between atoms: _41  and  _42
REMARK   18  A    between atoms: _41  and  _44
REMARK   19  A    between atoms: _44  and  _45
REMARK   20  A    between atoms: _47  and  _49
REMARK   21  A    between atoms: _49  and  _50
REMARK   22  A    between atoms: _49  and  _52
REMARK   23  A    between atoms: _52  and  _53
REMARK   24  A    between atoms: _55  and  _57
REMARK   25  A    between atoms: _57  and  _58
REMARK   26  A    between atoms: _57  and  _60
REMARK   27  A    between atoms: _60  and  _61
REMARK   28  A    between atoms: _61  and  _62
REMARK   29  A    between atoms: _64  and  _66
REMARK   30  A    between atoms: _66  and  _67
REMARK   31  A    between atoms: _70  and  _72
REMARK   32  A    between atoms: _72  and  _73
REMARK   33  A    between atoms: _72  and  _75
REMARK   34  A    between atoms: _78  and  _80
REMARK   35  A    between atoms: _80  and  _81
REMARK   36  A    between atoms: _80  and  _83
REMARK   37  A    between atoms: _83  and  _84
REMARK   38  A    between atoms: _84  and  _85
REMARK   39  A    between atoms: _85  and  _86
REMARK   40  A    between atoms: _86  and  _87
REMARK   41  A    between atoms: _91  and  _93
REMARK   42  A    between atoms: _93  and  _94
REMARK   43  A    between atoms: _93  and  _96
REMARK   44  A    between atoms: _96  and  _97
REMARK   45  A    between atoms: _103  and  _105
REMARK   46  A    between atoms: _105  and  _106
REMARK   47  A    between atoms: _108  and  _110
REMARK   48  A    between atoms: _110  and  _111
REMARK   49  A    between atoms: _110  and  _113
REMARK   50  A    between atoms: _113  and  _114
REMARK   51  A    between atoms: _116  and  _118
REMARK   52  A    between atoms: _118  and  _119
REMARK   53  A    between atoms: _118  and  _121
REMARK   54  A    between atoms: _121  and  _122
REMARK   55  A    between atoms: _132  and  _134
REMARK   56  A    between atoms: _134  and  _135
REMARK   57  A    between atoms: _134  and  _137
REMARK   58  A    between atoms: _140  and  _142
REMARK   59  A    between atoms: _142  and  _143
REMARK   60  A    between atoms: _142  and  _145
REMARK   61  A    between atoms: _145  and  _146
REMARK   62  A    between atoms: _151  and  _152
REMARK   63  A    between atoms: _154  and  _156
REMARK   64  A    between atoms: _156  and  _157
REMARK   65  A    between atoms: _156  and  _159
REMARK   66  A    between atoms: _159  and  _160
REMARK   67  A    between atoms: _162  and  _164
REMARK   68  A    between atoms: _164  and  _165
REMARK   69  A    between atoms: _167  and  _169
REMARK   70  A    between atoms: _169  and  _170
REMARK   71  A    between atoms: _169  and  _172
REMARK   72  A    between atoms: _172  and  _173
REMARK   73  A    between atoms: _173  and  _174
REMARK   74  A    between atoms: _177  and  _179
REMARK   75  A    between atoms: _179  and  _180
REMARK   76  A    between atoms: _179  and  _182
REMARK   77  A    between atoms: _182  and  _183
REMARK   78  A    between atoms: _183  and  _184
REMARK   79  A    between atoms: _189  and  _191
REMARK   80  A    between atoms: _191  and  _192
REMARK   81  A    between atoms: _191  and  _194
REMARK   82  A    between atoms: _197  and  _199
REMARK   83  A    between atoms: _199  and  _200
REMARK   84  A    between atoms: _199  and  _202
REMARK   85  A    between atoms: _202  and  _203
REMARK   86  A    between atoms: _203  and  _204
REMARK   87  A    between atoms: _209  and  _211
REMARK   88  A    between atoms: _211  and  _212
REMARK   89  A    between atoms: _211  and  _214
REMARK   90  A    between atoms: _214  and  _215
REMARK   91  A    between atoms: _220  and  _222
REMARK   92  A    between atoms: _222  and  _223
REMARK   93  A    between atoms: _222  and  _225
REMARK   94  A    between atoms: _225  and  _226
REMARK   95  A    between atoms: _231  and  _232
REMARK   96  A    between atoms: _234  and  _236
REMARK   97  A    between atoms: _236  and  _237
REMARK   98  A    between atoms: _236  and  _239
REMARK   99  A    between atoms: _239  and  _240
REMARK  100  A    between atoms: _242  and  _244
REMARK  101  A    between atoms: _251  and  _252
REMARK  102  A    between atoms: _256  and  _258
REMARK  103  A    between atoms: _258  and  _259
REMARK  104  A    between atoms: _258  and  _261
REMARK  105  A    between atoms: _261  and  _262
REMARK  106  A    between atoms: _262  and  _263
REMARK  107  A    between atoms: _267  and  _268
REMARK  108  A    between atoms: _273  and  _275
REMARK  109  A    between atoms: _275  and  _276
REMARK  110  A    between atoms: _275  and  _278
REMARK  111  A    between atoms: _278  and  _279
REMARK  112  A    between atoms: _284  and  _285
REMARK  113  A    between atoms: _287  and  _289
REMARK  114  A    between atoms: _289  and  _290
REMARK  115  A    between atoms: _289  and  _292
REMARK  116  A    between atoms: _292  and  _293
REMARK  117  A    between atoms: _296  and  _298
REMARK  118  A    between atoms: _298  and  _299
REMARK  119  A    between atoms: _298  and  _301
REMARK  120  A    between atoms: _301  and  _302
REMARK  121  A    between atoms: _305  and  _307
REMARK  122  A    between atoms: _307  and  _308
REMARK  123  A    between atoms: _307  and  _310
REMARK  124  A    between atoms: _313  and  _315
REMARK  125  A    between atoms: _315  and  _316
REMARK  126  A    between atoms: _315  and  _318
REMARK  127  A    between atoms: _318  and  _319
REMARK  128  A    between atoms: _324  and  _326
REMARK  129  A    between atoms: _326  and  _327
REMARK  130  A    between atoms: _326  and  _329
REMARK  131  A    between atoms: _329  and  _330
REMARK  132  A    between atoms: _333  and  _335
REMARK  133  A    between atoms: _335  and  _336
REMARK  134  A    between atoms: _335  and  _338
REMARK  135  A    between atoms: _338  and  _339
REMARK  136  A    between atoms: _342  and  _344
REMARK  137  A    between atoms: _344  and  _345
REMARK  138  A    between atoms: _344  and  _347
REMARK  139  A    between atoms: _347  and  _348
REMARK  140  A    between atoms: _348  and  _349
REMARK  141  A    between atoms: _354  and  _356
REMARK  142  A    between atoms: _356  and  _357
REMARK  143  A    between atoms: _356  and  _359
REMARK  144  A    between atoms: _359  and  _360
REMARK  145  A    between atoms: _363  and  _365
REMARK  146  A    between atoms: _365  and  _366
REMARK  147  A    between atoms: _365  and  _368
REMARK  148  A    between atoms: _371  and  _373
REMARK  149  A    between atoms: _373  and  _374
REMARK  150  A    between atoms: _373  and  _376
REMARK  151  A    between atoms: _376  and  _377
REMARK  152  A    between atoms: _382  and  _383
REMARK  153  A    between atoms: _385  and  _387
REMARK  154  A    between atoms: _387  and  _388
REMARK  155  A    between atoms: _387  and  _390
REMARK  156  A    between atoms: _390  and  _391
REMARK  157  A    between atoms: _391  and  _392
REMARK  158  A    between atoms: _395  and  _397
REMARK  159  A    between atoms: _397  and  _398
REMARK  160  A    between atoms: _397  and  _400
REMARK  161  A    between atoms: _400  and  _401
REMARK  162  A    between atoms: _401  and  _402
REMARK  163  A    between atoms: _407  and  _409
REMARK  164  A    between atoms: _409  and  _410
REMARK  165  A    between atoms: _409  and  _412
REMARK  166  A    between atoms: _412  and  _413
REMARK  167  A    between atoms: _413  and  _414
REMARK  168  A    between atoms: _414  and  _415
REMARK  169  A    between atoms: _424  and  _426
REMARK  170  A    between atoms: _426  and  _427
REMARK  171  A    between atoms: _426  and  _429
REMARK  172  A    between atoms: _429  and  _430
REMARK  173  A    between atoms: _430  and  _431
REMARK  174  A    between atoms: _431  and  _432
REMARK  175  A    between atoms: _441  and  _443
REMARK  176  A    between atoms: _443  and  _444
REMARK  177  A    between atoms: _443  and  _446
REMARK  178  A    between atoms: _446  and  _447
REMARK  179  A    between atoms: _450  and  _451
REMARK  180  A    between atoms: _456  and  _458
REMARK  181  A    between atoms: _458  and  _459
REMARK  182  A    between atoms: _458  and  _461
REMARK  183  A    between atoms: _461  and  _462
REMARK  184  A    between atoms: _465  and  _467
REMARK  185  A    between atoms: _467  and  _468
REMARK  186  A    between atoms: _471  and  _473
REMARK  187  A    between atoms: _473  and  _474
REMARK  188  A    between atoms: _473  and  _476
REMARK  189  A    between atoms: _479  and  _481
REMARK  190  A    between atoms: _481  and  _482
REMARK  191  A    between atoms: _481  and  _484
REMARK  192  A    between atoms: _484  and  _485
REMARK  193  A    between atoms: _485  and  _486
REMARK  194  A    between atoms: _488  and  _490
REMARK  195  A    between atoms: _490  and  _491
REMARK  196  A    between atoms: _490  and  _493
REMARK  197  A    between atoms: _493  and  _494
REMARK  198  A    between atoms: _500  and  _502
REMARK  199  A    between atoms: _502  and  _503
REMARK  200  A    between atoms: _502  and  _505
REMARK  201  A    between atoms: _505  and  _506
REMARK  202  A    between atoms: _510  and  _511
REMARK  203  A    between atoms: _516  and  _518
REMARK  204  A    between atoms: _518  and  _519
REMARK  205  A    between atoms: _522  and  _524
REMARK  206  A    between atoms: _524  and  _525
REMARK  207  A    between atoms: _524  and  _527
REMARK  208  A    between atoms: _527  and  _528
REMARK  209  A    between atoms: _531  and  _533
REMARK  210  A    between atoms: _533  and  _534
REMARK  211  A    between atoms: _533  and  _536
REMARK  212  A    between atoms: _536  and  _537
REMARK  213  A    between atoms: _539  and  _541
REMARK  214  A    between atoms: _541  and  _542
REMARK  215  A    between atoms: _541  and  _544
REMARK  216  A    between atoms: _544  and  _545
REMARK  217  A    between atoms: _547  and  _549
REMARK  218  A    between atoms: _549  and  _550
REMARK  219  A    between atoms: _549  and  _552
REMARK  220  A    between atoms: _552  and  _553
REMARK  221  A    between atoms: _558  and  _559
REMARK  222  A    between atoms: _561  and  _563
REMARK  223  A    between atoms: _563  and  _564
REMARK  224  A    between atoms: _563  and  _566
REMARK  225  A    between atoms: _566  and  _567
REMARK  226  A    between atoms: _572  and  _573
REMARK  227  A    between atoms: _575  and  _577
REMARK  228  A    between atoms: _577  and  _578
REMARK                            x       y       z     vdW  Elec       q    Type
REMARK                         _______ _______ _______ _____ _____    ______ ____
ROOT
ATOM      1  CA  HIS A   4       9.367  -4.123 -21.198  0.00  0.00    +0.155 C 
ENDROOT
BRANCH   1   2
ATOM      2  C   HIS A   4       8.767  -2.740 -21.009  0.00  0.00    +0.241 C 
ATOM      3  N   TYR A   5       9.549  -1.837 -20.424  0.00  0.00    -0.297 N 
ATOM      4  H   TYR A   5      10.450  -2.149 -20.008  0.00  0.00    +0.150 HD
ATOM      5  O   HIS A   4       7.618  -2.501 -21.390  0.00  0.00    -0.273 OA
BRANCH   3   6
ATOM      6  CA  TYR A   5       9.188  -0.417 -20.343  0.00  0.00    +0.153 C 
BRANCH   6   7
ATOM      7  C   TYR A   5      10.066   0.364 -21.289  0.00  0.00    +0.241 C 
ATOM      8  O   TYR A   5      11.270   0.152 -21.322  0.00  0.00    -0.273 OA
ATOM      9  N   SER A   6       9.471   1.298 -22.023  0.00  0.00    -0.295 N 
ATOM     10  H   SER A   6       8.452   1.467 -21.899  0.00  0.00    +0.150 HD
BRANCH   9  11
ATOM     11  CA  SER A   6      10.210   2.094 -22.999  0.00  0.00    +0.178 C 
BRANCH  11  12
ATOM     12  C   SER A   6      11.261   3.011 -22.365  0.00  0.00    +0.243 C 
ATOM     13  N   CYS A   7      11.193   3.179 -21.045  0.00  0.00    -0.296 N 
ATOM     14  H   CYS A   7      10.391   2.764 -20.529  0.00  0.00    +0.150 HD
ATOM     15  O   SER A   6      12.126   3.543 -23.066  0.00  0.00    -0.273 OA
BRANCH  13  16
ATOM     16  CA  CYS A   7      12.204   3.925 -20.293  0.00  0.00    +0.160 C 
ATOM     17  CB  CYS A   7      11.735   4.129 -18.852  0.00  0.00    +0.098 C 
ATOM     18  SG  CYS A   7      11.524   2.533 -17.941  0.00  0.00    -0.080 S 
ATOM     19  SG  CYS A   8      13.406   1.961 -17.299  0.00  0.00    -0.080 S 
ATOM     20  CB  CYS A   8      13.976   0.590 -18.343  0.00  0.00    +0.096 C 
ATOM     21  CA  CYS A   8      14.529   1.050 -19.684  0.00  0.00    +0.149 C 
ATOM     22  N   CYS A   8      13.505   1.879 -20.304  0.00  0.00    -0.297 N 
ATOM     23  H   CYS A   8      12.736   1.425 -20.837  0.00  0.00    +0.150 HD
ATOM     24  C   CYS A   7      13.534   3.204 -20.203  0.00  0.00    +0.242 C 
ATOM     25  O   CYS A   7      14.564   3.838 -20.027  0.00  0.00    -0.273 OA
BRANCH  21  26
ATOM     26  C   CYS A   8      14.919  -0.184 -20.504  0.00  0.00    +0.228 C 
ATOM     27  O   CYS A   8      14.035  -0.923 -20.950  0.00  0.00    -0.286 OA
ENDBRANCH  21  26
ENDBRANCH  13  16
ENDBRANCH  11  12
BRANCH  11  28
ATOM     28  CB  SER A   6       9.246   2.901 -23.859  0.00  0.00    +0.166 C 
BRANCH  28  29
ATOM     29  OG  SER A   6       8.177   3.384 -23.078  0.00  0.00    -0.380 OA
ATOM     30  H   SER A   6       7.561   3.905 -23.651  0.00  0.00    +0.211 HD
ENDBRANCH  28  29
ENDBRANCH  11  28
ENDBRANCH   9  11
ENDBRANCH   6   7
BRANCH   6  31
ATOM     31  CB  TYR A   5       9.413   0.122 -18.938  0.00  0.00    +0.055 C 
BRANCH  31  32
ATOM     32  CG  TYR A   5       8.562  -0.526 -17.905  0.00  0.00    -0.020 A 
ATOM     33  CD2 TYR A   5       8.942  -1.721 -17.337  0.00  0.00    -0.001 A 
ATOM     34  CE2 TYR A   5       8.163  -2.332 -16.388  0.00  0.00    +0.036 A 
ATOM     35  CZ  TYR A   5       6.981  -1.748 -15.991  0.00  0.00    +0.134 A 
ATOM     36  CE1 TYR A   5       6.577  -0.556 -16.533  0.00  0.00    +0.036 A 
ATOM     37  CD1 TYR A   5       7.366   0.054 -17.494  0.00  0.00    -0.001 A 
BRANCH  35  38
ATOM     38  OH  TYR A   5       6.223  -2.375 -15.038  0.00  0.00    -0.506 OA
ATOM     39  HH  TYR A   5       5.410  -1.839 -14.859  0.00  0.00    +0.292 HD
ENDBRANCH  35  38
ENDBRANCH  31  32
ENDBRANCH   6  31
ENDBRANCH   3   6
ENDBRANCH   1   2
BRANCH   1  42
ATOM     40  C   GLN A   3       8.771  -5.964 -19.718  0.00  0.00    +0.241 C 
ATOM     41  O   GLN A   3       9.886  -5.978 -19.188  0.00  0.00    -0.273 OA
ATOM     42  N   HIS A   4       8.448  -5.130 -20.697  0.00  0.00    -0.297 N 
ATOM     43  H   HIS A   4       7.501  -5.200 -21.122  0.00  0.00    +0.150 HD
BRANCH  40  44
ATOM     44  CA  GLN A   3       7.668  -6.940 -19.277  0.00  0.00    +0.149 C 
BRANCH  44  46
ATOM     45  C   VAL A   2       7.929  -9.331 -19.622  0.00  0.00    +0.241 C 
ATOM     46  N   GLN A   3       8.242  -8.233 -18.948  0.00  0.00    -0.297 N 
ATOM     47  H   GLN A   3       8.918  -8.300 -18.161  0.00  0.00    +0.150 HD
ATOM     48  O   VAL A   2       7.243  -9.319 -20.630  0.00  0.00    -0.273 OA
BRANCH  45  49
ATOM     49  CA  VAL A   2       8.465 -10.642 -19.076  0.00  0.00    +0.148 C 
BRANCH  49  52
ATOM     50  C   GLN A   1       6.816 -11.731 -17.648  0.00  0.00    +0.238 C 
ATOM     51  O   GLN A   1       7.331 -11.293 -16.623  0.00  0.00    -0.274 OA
ATOM     52  N   VAL A   2       7.335 -11.546 -18.856  0.00  0.00    -0.297 N 
ATOM     53  H   VAL A   2       6.929 -12.056 -19.666  0.00  0.00    +0.150 HD
BRANCH  50  54
ATOM     54  CA  GLN A   1       5.534 -12.545 -17.580  0.00  0.00    +0.145 C 
BRANCH  54  55
ATOM     55  N   GLN A   1       5.574 -13.465 -16.444  0.00  0.00    -0.238 NA
ATOM     56  H   GLN A   1       5.817 -13.099 -15.502  0.00  0.00    +0.142 HD
ENDBRANCH  54  55
BRANCH  54  57
ATOM     57  CB  GLN A   1       4.358 -11.588 -17.454  0.00  0.00    +0.036 C 
BRANCH  57  58
ATOM     58  CG  GLN A   1       2.998 -12.228 -17.582  0.00  0.00    +0.087 C 
BRANCH  58  59
ATOM     59  CD  GLN A   1       1.873 -11.207 -17.499  0.00  0.00    +0.219 C 
ATOM     60  NE2 GLN A   1       1.909 -10.376 -16.472  0.00  0.00    -0.329 N 
ATOM     61 HE21 GLN A   1       2.675 -10.447 -15.772  0.00  0.00    +0.145 HD
ATOM     62 HE22 GLN A   1       1.171  -9.651 -16.363  0.00  0.00    +0.145 HD
ATOM     63  OE1 GLN A   1       0.986 -11.164 -18.355  0.00  0.00    -0.275 OA
ENDBRANCH  58  59
ENDBRANCH  57  58
ENDBRANCH  54  57
ENDBRANCH  50  54
ENDBRANCH  49  52
BRANCH  49  64
ATOM     64  CB  VAL A   2       9.493 -11.218 -20.055  0.00  0.00    +0.027 C 
ATOM     65  CG2 VAL A   2       9.953 -12.578 -19.581  0.00  0.00    +0.002 C 
ATOM     66  CG1 VAL A   2      10.678 -10.294 -20.164  0.00  0.00    +0.002 C 
ENDBRANCH  49  64
ENDBRANCH  45  49
ENDBRANCH  44  46
BRANCH  44  67
ATOM     67  CB  GLN A   3       6.897  -6.398 -18.062  0.00  0.00    +0.039 C 
BRANCH  67  68
ATOM     68  CG  GLN A   3       5.703  -5.517 -18.414  0.00  0.00    +0.087 C 
BRANCH  68  69
ATOM     69  CD  GLN A   3       4.348  -6.233 -18.380  0.00  0.00    +0.219 C 
ATOM     70  NE2 GLN A   3       4.261  -7.361 -17.660  0.00  0.00    -0.329 N 
ATOM     71 HE21 GLN A   3       5.097  -7.723 -17.158  0.00  0.00    +0.145 HD
ATOM     72 HE22 GLN A   3       3.358  -7.874 -17.604  0.00  0.00    +0.145 HD
ATOM     73  OE1 GLN A   3       3.384  -5.759 -18.997  0.00  0.00    -0.275 OA
ENDBRANCH  68  69
ENDBRANCH  67  68
ENDBRANCH  44  67
ENDBRANCH  40  44
ENDBRANCH   1  42
BRANCH   1  74
ATOM     74  CB  HIS A   4       9.648  -4.366 -22.682  0.00  0.00    +0.076 C 
BRANCH  74  75
ATOM     75  CG  HIS A   4      10.394  -3.252 -23.352  0.00  0.00    +0.082 A 
ATOM     76  ND1 HIS A   4      11.769  -3.173 -23.350  0.00  0.00    -0.227 NA
ATOM     77  CE1 HIS A   4      12.147  -2.096 -24.017  0.00  0.00    +0.199 A 
ATOM     78  NE2 HIS A   4      11.066  -1.469 -24.447  0.00  0.00    -0.221 NA
ATOM     79  CD2 HIS A   4       9.957  -2.176 -24.054  0.00  0.00    +0.115 A 
ENDBRANCH  74  75
ENDBRANCH   1  74
TORSDOF 28
REMARK  Name = ../refined-set-2016/2byr/2byr_pocket.pdb
REMARK  228 active torsions:
REMARK  status: ('A' for Active; 'I' for Inactive)
REMARK    1  A    between atoms: _1  and  _3
REMARK    2  A    between atoms: _3  and  _4
REMARK    3  A    between atoms: _3  and  _6
REMARK    4  A    between atoms: _6  and  _7
REMARK    5  A    between atoms: _10  and  _12
REMARK    6  A    between atoms: _12  and  _13
REMARK    7  A    between atoms: _12  and  _15
REMARK    8  A    between atoms: _15  and  _16
REMARK    9  A    between atoms: _19  and  _21
REMARK   10  A    between atoms: _21  and  _22
REMARK   11  A    between atoms: _25  and  _27
REMARK   12  A    between atoms: _27  and  _28
REMARK   13  A    between atoms: _27  and  _30
REMARK   14  A    between atoms: _30  and  _31
REMARK   15  A    between atoms: _36  and  _37
REMARK   16  A    between atoms: _39  and  _41
REMARK   17  A    between atoms: _41  and  _42
REMARK   18  A    between atoms: _41  and  _44
REMARK   19  A    between atoms: _44  and  _45
REMARK   20  A    between atoms: _47  and  _49
REMARK   21  A    between atoms: _49  and  _50
REMARK   22  A    between atoms: _49  and  _52
REMARK   23  A    between atoms: _52  and  _53
REMARK   24  A    between atoms: _55  and  _57
REMARK   25  A    between atoms: _57  and  _58
REMARK   26  A    between atoms: _57  and  _60
REMARK   27  A    between atoms: _60  and  _61
REMARK   28  A    between atoms: _61  and  _62
REMARK   29  A    between atoms: _64  and  _66
REMARK   30  A    between atoms: _66  and  _67
REMARK   31  A    between atoms: _70  and  _72
REMARK   32  A    between atoms: _72  and  _73
REMARK   33  A    between atoms: _72  and  _75
REMARK   34  A    between atoms: _78  and  _80
REMARK   35  A    between atoms: _80  and  _81
REMARK   36  A    between atoms: _80  and  _83
REMARK   37  A    between atoms: _83  and  _84
REMARK   38  A    between atoms: _84  and  _85
REMARK   39  A    between atoms: _85  and  _86
REMARK   40  A    between atoms: _86  and  _87
REMARK   41  A    between atoms: _91  and  _93
REMARK   42  A    between atoms: _93  and  _94
REMARK   43  A    between atoms: _93  and  _96
REMARK   44  A    between atoms: _96  and  _97
REMARK   45  A    between atoms: _103  and  _105
REMARK   46  A    between atoms: _105  and  _106
REMARK   47  A    between atoms: _108  and  _110
REMARK   48  A    between atoms: _110  and  _111
REMARK   49  A    between atoms: _110  and  _113
REMARK   50  A    between atoms: _113  and  _114
REMARK   51  A    between atoms: _116  and  _118
REMARK   52  A    between atoms: _118  and  _119
REMARK   53  A    between atoms: _118  and  _121
REMARK   54  A    between atoms: _121  and  _122
REMARK   55  A    between atoms: _132  and  _134
REMARK   56  A    between atoms: _134  and  _135
REMARK   57  A    between atoms: _134  and  _137
REMARK   58  A    between atoms: _140  and  _142
REMARK   59  A    between atoms: _142  and  _143
REMARK   60  A    between atoms: _142  and  _145
REMARK   61  A    between atoms: _145  and  _146
REMARK   62  A    between atoms: _151  and  _152
REMARK   63  A    between atoms: _154  and  _156
REMARK   64  A    between atoms: _156  and  _157
REMARK   65  A    between atoms: _156  and  _159
REMARK   66  A    between atoms: _159  and  _160
REMARK   67  A    between atoms: _162  and  _164
REMARK   68  A    between atoms: _164  and  _165
REMARK   69  A    between atoms: _167  and  _169
REMARK   70  A    between atoms: _169  and  _170
REMARK   71  A    between atoms: _169  and  _172
REMARK   72  A    between atoms: _172  and  _173
REMARK   73  A    between atoms: _173  and  _174
REMARK   74  A    between atoms: _177  and  _179
REMARK   75  A    between atoms: _179  and  _180
REMARK   76  A    between atoms: _179  and  _182
REMARK   77  A    between atoms: _182  and  _183
REMARK   78  A    between atoms: _183  and  _184
REMARK   79  A    between atoms: _189  and  _191
REMARK   80  A    between atoms: _191  and  _192
REMARK   81  A    between atoms: _191  and  _194
REMARK   82  A    between atoms: _197  and  _199
REMARK   83  A    between atoms: _199  and  _200
REMARK   84  A    between atoms: _199  and  _202
REMARK   85  A    between atoms: _202  and  _203
REMARK   86  A    between atoms: _203  and  _204
REMARK   87  A    between atoms: _209  and  _211
REMARK   88  A    between atoms: _211  and  _212
REMARK   89  A    between atoms: _211  and  _214
REMARK   90  A    between atoms: _214  and  _215
REMARK   91  A    between atoms: _220  and  _222
REMARK   92  A    between atoms: _222  and  _223
REMARK   93  A    between atoms: _222  and  _225
REMARK   94  A    between atoms: _225  and  _226
REMARK   95  A    between atoms: _231  and  _232
REMARK   96  A    between atoms: _234  and  _236
REMARK   97  A    between atoms: _236  and  _237
REMARK   98  A    between atoms: _236  and  _239
REMARK   99  A    between atoms: _239  and  _240
REMARK  100  A    between atoms: _242  and  _244
REMARK  101  A    between atoms: _251  and  _252
REMARK  102  A    between atoms: _256  and  _258
REMARK  103  A    between atoms: _258  and  _259
REMARK  104  A    between atoms: _258  and  _261
REMARK  105  A    between atoms: _261  and  _262
REMARK  106  A    between atoms: _262  and  _263
REMARK  107  A    between atoms: _267  and  _268
REMARK  108  A    between atoms: _273  and  _275
REMARK  109  A    between atoms: _275  and  _276
REMARK  110  A    between atoms: _275  and  _278
REMARK  111  A    between atoms: _278  and  _279
REMARK  112  A    between atoms: _284  and  _285
REMARK  113  A    between atoms: _287  and  _289
REMARK  114  A    between atoms: _289  and  _290
REMARK  115  A    between atoms: _289  and  _292
REMARK  116  A    between atoms: _292  and  _293
REMARK  117  A    between atoms: _296  and  _298
REMARK  118  A    between atoms: _298  and  _299
REMARK  119  A    between atoms: _298  and  _301
REMARK  120  A    between atoms: _301  and  _302
REMARK  121  A    between atoms: _305  and  _307
REMARK  122  A    between atoms: _307  and  _308
REMARK  123  A    between atoms: _307  and  _310
REMARK  124  A    between atoms: _313  and  _315
REMARK  125  A    between atoms: _315  and  _316
REMARK  126  A    between atoms: _315  and  _318
REMARK  127  A    between atoms: _318  and  _319
REMARK  128  A    between atoms: _324  and  _326
REMARK  129  A    between atoms: _326  and  _327
REMARK  130  A    between atoms: _326  and  _329
REMARK  131  A    between atoms: _329  and  _330
REMARK  132  A    between atoms: _333  and  _335
REMARK  133  A    between atoms: _335  and  _336
REMARK  134  A    between atoms: _335  and  _338
REMARK  135  A    between atoms: _338  and  _339
REMARK  136  A    between atoms: _342  and  _344
REMARK  137  A    between atoms: _344  and  _345
REMARK  138  A    between atoms: _344  and  _347
REMARK  139  A    between atoms: _347  and  _348
REMARK  140  A    between atoms: _348  and  _349
REMARK  141  A    between atoms: _354  and  _356
REMARK  142  A    between atoms: _356  and  _357
REMARK  143  A    between atoms: _356  and  _359
REMARK  144  A    between atoms: _359  and  _360
REMARK  145  A    between atoms: _363  and  _365
REMARK  146  A    between atoms: _365  and  _366
REMARK  147  A    between atoms: _365  and  _368
REMARK  148  A    between atoms: _371  and  _373
REMARK  149  A    between atoms: _373  and  _374
REMARK  150  A    between atoms: _373  and  _376
REMARK  151  A    between atoms: _376  and  _377
REMARK  152  A    between atoms: _382  and  _383
REMARK  153  A    between atoms: _385  and  _387
REMARK  154  A    between atoms: _387  and  _388
REMARK  155  A    between atoms: _387  and  _390
REMARK  156  A    between atoms: _390  and  _391
REMARK  157  A    between atoms: _391  and  _392
REMARK  158  A    between atoms: _395  and  _397
REMARK  159  A    between atoms: _397  and  _398
REMARK  160  A    between atoms: _397  and  _400
REMARK  161  A    between atoms: _400  and  _401
REMARK  162  A    between atoms: _401  and  _402
REMARK  163  A    between atoms: _407  and  _409
REMARK  164  A    between atoms: _409  and  _410
REMARK  165  A    between atoms: _409  and  _412
REMARK  166  A    between atoms: _412  and  _413
REMARK  167  A    between atoms: _413  and  _414
REMARK  168  A    between atoms: _414  and  _415
REMARK  169  A    between atoms: _424  and  _426
REMARK  170  A    between atoms: _426  and  _427
REMARK  171  A    between atoms: _426  and  _429
REMARK  172  A    between atoms: _429  and  _430
REMARK  173  A    between atoms: _430  and  _431
REMARK  174  A    between atoms: _431  and  _432
REMARK  175  A    between atoms: _441  and  _443
REMARK  176  A    between atoms: _443  and  _444
REMARK  177  A    between atoms: _443  and  _446
REMARK  178  A    between atoms: _446  and  _447
REMARK  179  A    between atoms: _450  and  _451
REMARK  180  A    between atoms: _456  and  _458
REMARK  181  A    between atoms: _458  and  _459
REMARK  182  A    between atoms: _458  and  _461
REMARK  183  A    between atoms: _461  and  _462
REMARK  184  A    between atoms: _465  and  _467
REMARK  185  A    between atoms: _467  and  _468
REMARK  186  A    between atoms: _471  and  _473
REMARK  187  A    between atoms: _473  and  _474
REMARK  188  A    between atoms: _473  and  _476
REMARK  189  A    between atoms: _479  and  _481
REMARK  190  A    between atoms: _481  and  _482
REMARK  191  A    between atoms: _481  and  _484
REMARK  192  A    between atoms: _484  and  _485
REMARK  193  A    between atoms: _485  and  _486
REMARK  194  A    between atoms: _488  and  _490
REMARK  195  A    between atoms: _490  and  _491
REMARK  196  A    between atoms: _490  and  _493
REMARK  197  A    between atoms: _493  and  _494
REMARK  198  A    between atoms: _500  and  _502
REMARK  199  A    between atoms: _502  and  _503
REMARK  200  A    between atoms: _502  and  _505
REMARK  201  A    between atoms: _505  and  _506
REMARK  202  A    between atoms: _510  and  _511
REMARK  203  A    between atoms: _516  and  _518
REMARK  204  A    between atoms: _518  and  _519
REMARK  205  A    between atoms: _522  and  _524
REMARK  206  A    between atoms: _524  and  _525
REMARK  207  A    between atoms: _524  and  _527
REMARK  208  A    between atoms: _527  and  _528
REMARK  209  A    between atoms: _531  and  _533
REMARK  210  A    between atoms: _533  and  _534
REMARK  211  A    between atoms: _533  and  _536
REMARK  212  A    between atoms: _536  and  _537
REMARK  213  A    between atoms: _539  and  _541
REMARK  214  A    between atoms: _541  and  _542
REMARK  215  A    between atoms: _541  and  _544
REMARK  216  A    between atoms: _544  and  _545
REMARK  217  A    between atoms: _547  and  _549
REMARK  218  A    between atoms: _549  and  _550
REMARK  219  A    between atoms: _549  and  _552
REMARK  220  A    between atoms: _552  and  _553
REMARK  221  A    between atoms: _558  and  _559
REMARK  222  A    between atoms: _561  and  _563
REMARK  223  A    between atoms: _563  and  _564
REMARK  224  A    between atoms: _563  and  _566
REMARK  225  A    between atoms: _566  and  _567
REMARK  226  A    between atoms: _572  and  _573
REMARK  227  A    between atoms: _575  and  _577
REMARK  228  A    between atoms: _577  and  _578
REMARK                            x       y       z     vdW  Elec       q    Type
REMARK                         _______ _______ _______ _____ _____    ______ ____
ROOT
ATOM      1  CA  ILE A   4       9.345  -9.893 -14.387  0.00  0.00    +0.149 C 
ENDROOT
BRANCH   1   3
ATOM      2  C   TYR A   3      10.108  -7.960 -15.657  0.00  0.00    +0.241 C 
ATOM      3  N   ILE A   4      10.062  -8.628 -14.511  0.00  0.00    -0.297 N 
ATOM      4  H   ILE A   4      10.550  -8.239 -13.679  0.00  0.00    +0.150 HD
ATOM      5  O   TYR A   3       9.490  -8.302 -16.659  0.00  0.00    -0.273 OA
BRANCH   2   6
ATOM      6  CA  TYR A   3      11.036  -6.761 -15.701  0.00  0.00    +0.153 C 
BRANCH   6   9
ATOM      7  C   PRO A   2      12.981  -6.826 -17.177  0.00  0.00    +0.241 C 
ATOM      8  O   PRO A   2      13.777  -6.878 -16.240  0.00  0.00    -0.273 OA
ATOM      9  N   TYR A   3      11.667  -6.724 -17.017  0.00  0.00    -0.297 N 
ATOM     10  H   TYR A   3      11.066  -6.614 -17.859  0.00  0.00    +0.150 HD
BRANCH   7  13
ATOM     11  C   GLU A   1      14.819  -4.822 -18.729  0.00  0.00    +0.241 C 
ATOM     12  N   PRO A   2      14.760  -6.166 -18.700  0.00  0.00    -0.272 N 
ATOM     13  CA  PRO A   2      13.499  -6.864 -18.609  0.00  0.00    +0.152 C 
ATOM     14  CB  PRO A   2      13.869  -8.291 -18.990  0.00  0.00    +0.031 C 
ATOM     15  CG  PRO A   2      15.264  -8.442 -18.550  0.00  0.00    +0.024 C 
ATOM     16  CD  PRO A   2      15.901  -7.101 -18.730  0.00  0.00    +0.094 C 
ATOM     17  O   GLU A   1      13.815  -4.102 -18.779  0.00  0.00    -0.273 OA
BRANCH  11  18
ATOM     18  CA  GLU A   1      16.204  -4.198 -18.660  0.00  0.00    +0.146 C 
BRANCH  18  19
ATOM     19  N   GLU A   1      16.255  -2.961 -19.429  0.00  0.00    -0.238 NA
ATOM     20  H   GLU A   1      16.123  -2.053 -18.939  0.00  0.00    +0.142 HD
ENDBRANCH  18  19
BRANCH  18  21
ATOM     21  CB  GLU A   1      16.561  -3.968 -17.183  0.00  0.00    +0.038 C 
BRANCH  21  22
ATOM     22  CG  GLU A   1      17.675  -2.955 -16.917  0.00  0.00    +0.116 C 
BRANCH  22  23
ATOM     23  CD  GLU A   1      17.173  -1.530 -16.778  0.00  0.00    +0.365 C 
ATOM     24  OE2 GLU A   1      15.985  -1.324 -16.484  0.00  0.00    -0.246 OA
ATOM     25  OE1 GLU A   1      17.970  -0.607 -16.971  0.00  0.00    -0.246 OA
ENDBRANCH  22  23
ENDBRANCH  21  22
ENDBRANCH  18  21
ENDBRANCH  11  18
ENDBRANCH   7  13
ENDBRANCH   6   9
BRANCH   6  26
ATOM     26  CB  TYR A   3      10.307  -5.445 -15.408  0.00  0.00    +0.055 C 
BRANCH  26  27
ATOM     27  CG  TYR A   3      11.291  -4.305 -15.217  0.00  0.00    -0.020 A 
ATOM     28  CD2 TYR A   3      11.757  -3.963 -13.953  0.00  0.00    -0.001 A 
ATOM     29  CE2 TYR A   3      12.677  -2.945 -13.773  0.00  0.00    +0.036 A 
ATOM     30  CZ  TYR A   3      13.155  -2.257 -14.864  0.00  0.00    +0.134 A 
ATOM     31  CE1 TYR A   3      12.717  -2.583 -16.137  0.00  0.00    +0.036 A 
ATOM     32  CD1 TYR A   3      11.791  -3.608 -16.304  0.00  0.00    -0.001 A 
BRANCH  30  33
ATOM     33  OH  TYR A   3      14.078  -1.241 -14.700  0.00  0.00    -0.506 OA
ATOM     34  HH  TYR A   3      14.906  -1.467 -15.193  0.00  0.00    +0.292 HD
ENDBRANCH  30  33
ENDBRANCH  26  27
ENDBRANCH   6  26
ENDBRANCH   2   6
ENDBRANCH   1   3
BRANCH   1  35
ATOM     35  C   ILE A   4       8.240  -9.749 -13.366  0.00  0.00    +0.241 C 
ATOM     36  O   ILE A   4       8.437  -9.151 -12.313  0.00  0.00    -0.273 OA
ATOM     37  N   ASP A   5       7.075 -10.304 -13.682  0.00  0.00    -0.297 N 
ATOM     38  H   ASP A   5       6.933 -10.668 -14.646  0.00  0.00    +0.150 HD
BRANCH  37  39
ATOM     39  CA  ASP A   5       5.998 -10.416 -12.720  0.00  0.00    +0.160 C 
BRANCH  39  40
ATOM     40  C   ASP A   5       5.306 -11.760 -12.888  0.00  0.00    +0.241 C 
ATOM     41  N   VAL A   6       4.563 -12.169 -11.867  0.00  0.00    -0.297 N 
ATOM     42  H   VAL A   6       4.581 -11.628 -10.979  0.00  0.00    +0.150 HD
ATOM     43  O   ASP A   5       5.461 -12.421 -13.911  0.00  0.00    -0.273 OA
BRANCH  41  44
ATOM     44  CA  VAL A   6       3.725 -13.352 -11.957  0.00  0.00    +0.149 C 
BRANCH  44  45
ATOM     45  C   VAL A   6       2.301 -12.876 -11.911  0.00  0.00    +0.241 C 
ATOM     46  O   VAL A   6       1.904 -12.195 -10.976  0.00  0.00    -0.273 OA
ATOM     47  N   ASN A   7       1.539 -13.229 -12.935  0.00  0.00    -0.298 N 
ATOM     48  H   ASN A   7       1.933 -13.853 -13.667  0.00  0.00    +0.150 HD
BRANCH  47  49
ATOM     49  CA  ASN A   7       0.170 -12.769 -13.063  0.00  0.00    +0.146 C 
BRANCH  49  50
ATOM     50  C   ASN A   7      -0.800 -13.837 -12.550  0.00  0.00    +0.227 C 
ATOM     51  O   ASN A   7      -0.916 -14.902 -13.154  0.00  0.00    -0.286 OA
ENDBRANCH  49  50
BRANCH  49  52
ATOM     52  CB  ASN A   7      -0.115 -12.404 -14.521  0.00  0.00    +0.112 C 
BRANCH  52  53
ATOM     53  CG  ASN A   7      -1.493 -11.809 -14.723  0.00  0.00    +0.222 C 
ATOM     54  ND2 ASN A   7      -1.990 -11.103 -13.724  0.00  0.00    -0.329 N 
ATOM     55 HD21 ASN A   7      -1.435 -10.970 -12.854  0.00  0.00    +0.145 HD
ATOM     56 HD22 ASN A   7      -2.936 -10.680 -13.807  0.00  0.00    +0.145 HD
ATOM     57  OD1 ASN A   7      -2.105 -11.996 -15.770  0.00  0.00    -0.275 OA
ENDBRANCH  52  53
ENDBRANCH  49  52
ENDBRANCH  47  49
ENDBRANCH  44  45
BRANCH  44  58
ATOM     58  CB  VAL A   6       3.965 -14.315 -10.822  0.00  0.00    +0.027 C 
ATOM     59  CG2 VAL A   6       2.900 -15.424 -10.829  0.00  0.00    +0.002 C 
ATOM     60  CG1 VAL A   6       5.336 -14.899 -10.929  0.00  0.00    +0.002 C 
ENDBRANCH  44  58
ENDBRANCH  41  44
ENDBRANCH  39  40
BRANCH  39  61
ATOM     61  CB  ASP A   5       5.003  -9.272 -12.893  0.00  0.00    +0.143 C 
BRANCH  61  62
ATOM     62  CG  ASP A   5       4.231  -9.361 -14.202  0.00  0.00    +0.367 C 
ATOM     63  OD2 ASP A   5       3.363 -10.271 -14.336  0.00  0.00    -0.246 OA
ATOM     64  OD1 ASP A   5       4.494  -8.512 -15.081  0.00  0.00    -0.246 OA
ENDBRANCH  61  62
ENDBRANCH  39  61
ENDBRANCH  37  39
ENDBRANCH   1  35
BRANCH   1  65
ATOM     65  CB  ILE A   4      10.259 -11.076 -13.924  0.00  0.00    +0.027 C 
ATOM     66  CG2 ILE A   4       9.600 -12.410 -14.239  0.00  0.00    +0.002 C 
BRANCH  65  67
ATOM     67  CG1 ILE A   4      11.657 -11.017 -14.552  0.00  0.00    +0.002 C 
ATOM     68  CD1 ILE A   4      11.706 -11.302 -16.026  0.00  0.00    +0.000 C 
ENDBRANCH  65  67
ENDBRANCH   1  65
TORSDOF 26
REMARK  Name = ../refined-set-2016/2byr/2byr_pocket.pdb
REMARK  228 active torsions:
REMARK  status: ('A' for Active; 'I' for Inactive)
REMARK    1  A    between atoms: _1  and  _3
REMARK    2  A    between atoms: _3  and  _4
REMARK    3  A    between atoms: _3  and  _6
REMARK    4  A    between atoms: _6  and  _7
REMARK    5  A    between atoms: _10  and  _12
REMARK    6  A    between atoms: _12  and  _13
REMARK    7  A    between atoms: _12  and  _15
REMARK    8  A    between atoms: _15  and  _16
REMARK    9  A    between atoms: _19  and  _21
REMARK   10  A    between atoms: _21  and  _22
REMARK   11  A    between atoms: _25  and  _27
REMARK   12  A    between atoms: _27  and  _28
REMARK   13  A    between atoms: _27  and  _30
REMARK   14  A    between atoms: _30  and  _31
REMARK   15  A    between atoms: _36  and  _37
REMARK   16  A    between atoms: _39  and  _41
REMARK   17  A    between atoms: _41  and  _42
REMARK   18  A    between atoms: _41  and  _44
REMARK   19  A    between atoms: _44  and  _45
REMARK   20  A    between atoms: _47  and  _49
REMARK   21  A    between atoms: _49  and  _50
REMARK   22  A    between atoms: _49  and  _52
REMARK   23  A    between atoms: _52  and  _53
REMARK   24  A    between atoms: _55  and  _57
REMARK   25  A    between atoms: _57  and  _58
REMARK   26  A    between atoms: _57  and  _60
REMARK   27  A    between atoms: _60  and  _61
REMARK   28  A    between atoms: _61  and  _62
REMARK   29  A    between atoms: _64  and  _66
REMARK   30  A    between atoms: _66  and  _67
REMARK   31  A    between atoms: _70  and  _72
REMARK   32  A    between atoms: _72  and  _73
REMARK   33  A    between atoms: _72  and  _75
REMARK   34  A    between atoms: _78  and  _80
REMARK   35  A    between atoms: _80  and  _81
REMARK   36  A    between atoms: _80  and  _83
REMARK   37  A    between atoms: _83  and  _84
REMARK   38  A    between atoms: _84  and  _85
REMARK   39  A    between atoms: _85  and  _86
REMARK   40  A    between atoms: _86  and  _87
REMARK   41  A    between atoms: _91  and  _93
REMARK   42  A    between atoms: _93  and  _94
REMARK   43  A    between atoms: _93  and  _96
REMARK   44  A    between atoms: _96  and  _97
REMARK   45  A    between atoms: _103  and  _105
REMARK   46  A    between atoms: _105  and  _106
REMARK   47  A    between atoms: _108  and  _110
REMARK   48  A    between atoms: _110  and  _111
REMARK   49  A    between atoms: _110  and  _113
REMARK   50  A    between atoms: _113  and  _114
REMARK   51  A    between atoms: _116  and  _118
REMARK   52  A    between atoms: _118  and  _119
REMARK   53  A    between atoms: _118  and  _121
REMARK   54  A    between atoms: _121  and  _122
REMARK   55  A    between atoms: _132  and  _134
REMARK   56  A    between atoms: _134  and  _135
REMARK   57  A    between atoms: _134  and  _137
REMARK   58  A    between atoms: _140  and  _142
REMARK   59  A    between atoms: _142  and  _143
REMARK   60  A    between atoms: _142  and  _145
REMARK   61  A    between atoms: _145  and  _146
REMARK   62  A    between atoms: _151  and  _152
REMARK   63  A    between atoms: _154  and  _156
REMARK   64  A    between atoms: _156  and  _157
REMARK   65  A    between atoms: _156  and  _159
REMARK   66  A    between atoms: _159  and  _160
REMARK   67  A    between atoms: _162  and  _164
REMARK   68  A    between atoms: _164  and  _165
REMARK   69  A    between atoms: _167  and  _169
REMARK   70  A    between atoms: _169  and  _170
REMARK   71  A    between atoms: _169  and  _172
REMARK   72  A    between atoms: _172  and  _173
REMARK   73  A    between atoms: _173  and  _174
REMARK   74  A    between atoms: _177  and  _179
REMARK   75  A    between atoms: _179  and  _180
REMARK   76  A    between atoms: _179  and  _182
REMARK   77  A    between atoms: _182  and  _183
REMARK   78  A    between atoms: _183  and  _184
REMARK   79  A    between atoms: _189  and  _191
REMARK   80  A    between atoms: _191  and  _192
REMARK   81  A    between atoms: _191  and  _194
REMARK   82  A    between atoms: _197  and  _199
REMARK   83  A    between atoms: _199  and  _200
REMARK   84  A    between atoms: _199  and  _202
REMARK   85  A    between atoms: _202  and  _203
REMARK   86  A    between atoms: _203  and  _204
REMARK   87  A    between atoms: _209  and  _211
REMARK   88  A    between atoms: _211  and  _212
REMARK   89  A    between atoms: _211  and  _214
REMARK   90  A    between atoms: _214  and  _215
REMARK   91  A    between atoms: _220  and  _222
REMARK   92  A    between atoms: _222  and  _223
REMARK   93  A    between atoms: _222  and  _225
REMARK   94  A    between atoms: _225  and  _226
REMARK   95  A    between atoms: _231  and  _232
REMARK   96  A    between atoms: _234  and  _236
REMARK   97  A    between atoms: _236  and  _237
REMARK   98  A    between atoms: _236  and  _239
REMARK   99  A    between atoms: _239  and  _240
REMARK  100  A    between atoms: _242  and  _244
REMARK  101  A    between atoms: _251  and  _252
REMARK  102  A    between atoms: _256  and  _258
REMARK  103  A    between atoms: _258  and  _259
REMARK  104  A    between atoms: _258  and  _261
REMARK  105  A    between atoms: _261  and  _262
REMARK  106  A    between atoms: _262  and  _263
REMARK  107  A    between atoms: _267  and  _268
REMARK  108  A    between atoms: _273  and  _275
REMARK  109  A    between atoms: _275  and  _276
REMARK  110  A    between atoms: _275  and  _278
REMARK  111  A    between atoms: _278  and  _279
REMARK  112  A    between atoms: _284  and  _285
REMARK  113  A    between atoms: _287  and  _289
REMARK  114  A    between atoms: _289  and  _290
REMARK  115  A    between atoms: _289  and  _292
REMARK  116  A    between atoms: _292  and  _293
REMARK  117  A    between atoms: _296  and  _298
REMARK  118  A    between atoms: _298  and  _299
REMARK  119  A    between atoms: _298  and  _301
REMARK  120  A    between atoms: _301  and  _302
REMARK  121  A    between atoms: _305  and  _307
REMARK  122  A    between atoms: _307  and  _308
REMARK  123  A    between atoms: _307  and  _310
REMARK  124  A    between atoms: _313  and  _315
REMARK  125  A    between atoms: _315  and  _316
REMARK  126  A    between atoms: _315  and  _318
REMARK  127  A    between atoms: _318  and  _319
REMARK  128  A    between atoms: _324  and  _326
REMARK  129  A    between atoms: _326  and  _327
REMARK  130  A    between atoms: _326  and  _329
REMARK  131  A    between atoms: _329  and  _330
REMARK  132  A    between atoms: _333  and  _335
REMARK  133  A    between atoms: _335  and  _336
REMARK  134  A    between atoms: _335  and  _338
REMARK  135  A    between atoms: _338  and  _339
REMARK  136  A    between atoms: _342  and  _344
REMARK  137  A    between atoms: _344  and  _345
REMARK  138  A    between atoms: _344  and  _347
REMARK  139  A    between atoms: _347  and  _348
REMARK  140  A    between atoms: _348  and  _349
REMARK  141  A    between atoms: _354  and  _356
REMARK  142  A    between atoms: _356  and  _357
REMARK  143  A    between atoms: _356  and  _359
REMARK  144  A    between atoms: _359  and  _360
REMARK  145  A    between atoms: _363  and  _365
REMARK  146  A    between atoms: _365  and  _366
REMARK  147  A    between atoms: _365  and  _368
REMARK  148  A    between atoms: _371  and  _373
REMARK  149  A    between atoms: _373  and  _374
REMARK  150  A    between atoms: _373  and  _376
REMARK  151  A    between atoms: _376  and  _377
REMARK  152  A    between atoms: _382  and  _383
REMARK  153  A    between atoms: _385  and  _387
REMARK  154  A    between atoms: _387  and  _388
REMARK  155  A    between atoms: _387  and  _390
REMARK  156  A    between atoms: _390  and  _391
REMARK  157  A    between atoms: _391  and  _392
REMARK  158  A    between atoms: _395  and  _397
REMARK  159  A    between atoms: _397  and  _398
REMARK  160  A    between atoms: _397  and  _400
REMARK  161  A    between atoms: _400  and  _401
REMARK  162  A    between atoms: _401  and  _402
REMARK  163  A    between atoms: _407  and  _409
REMARK  164  A    between atoms: _409  and  _410
REMARK  165  A    between atoms: _409  and  _412
REMARK  166  A    between atoms: _412  and  _413
REMARK  167  A    between atoms: _413  and  _414
REMARK  168  A    between atoms: _414  and  _415
REMARK  169  A    between atoms: _424  and  _426
REMARK  170  A    between atoms: _426  and  _427
REMARK  171  A    between atoms: _426  and  _429
REMARK  172  A    between atoms: _429  and  _430
REMARK  173  A    between atoms: _430  and  _431
REMARK  174  A    between atoms: _431  and  _432
REMARK  175  A    between atoms: _441  and  _443
REMARK  176  A    between atoms: _443  and  _444
REMARK  177  A    between atoms: _443  and  _446
REMARK  178  A    between atoms: _446  and  _447
REMARK  179  A    between atoms: _450  and  _451
REMARK  180  A    between atoms: _456  and  _458
REMARK  181  A    between atoms: _458  and  _459
REMARK  182  A    between atoms: _458  and  _461
REMARK  183  A    between atoms: _461  and  _462
REMARK  184  A    between atoms: _465  and  _467
REMARK  185  A    between atoms: _467  and  _468
REMARK  186  A    between atoms: _471  and  _473
REMARK  187  A    between atoms: _473  and  _474
REMARK  188  A    between atoms: _473  and  _476
REMARK  189  A    between atoms: _479  and  _481
REMARK  190  A    between atoms: _481  and  _482
REMARK  191  A    between atoms: _481  and  _484
REMARK  192  A    between atoms: _484  and  _485
REMARK  193  A    between atoms: _485  and  _486
REMARK  194  A    between atoms: _488  and  _490
REMARK  195  A    between atoms: _490  and  _491
REMARK  196  A    between atoms: _490  and  _493
REMARK  197  A    between atoms: _493  and  _494
REMARK  198  A    between atoms: _500  and  _502
REMARK  199  A    between atoms: _502  and  _503
REMARK  200  A    between atoms: _502  and  _505
REMARK  201  A    between atoms: _505  and  _506
REMARK  202  A    between atoms: _510  and  _511
REMARK  203  A    between atoms: _516  and  _518
REMARK  204  A    between atoms: _518  and  _519
REMARK  205  A    between atoms: _522  and  _524
REMARK  206  A    between atoms: _524  and  _525
REMARK  207  A    between atoms: _524  and  _527
REMARK  208  A    between atoms: _527  and  _528
REMARK  209  A    between atoms: _531  and  _533
REMARK  210  A    between atoms: _533  and  _534
REMARK  211  A    between atoms: _533  and  _536
REMARK  212  A    between atoms: _536  and  _537
REMARK  213  A    between atoms: _539  and  _541
REMARK  214  A    between atoms: _541  and  _542
REMARK  215  A    between atoms: _541  and  _544
REMARK  216  A    between atoms: _544  and  _545
REMARK  217  A    between atoms: _547  and  _549
REMARK  218  A    between atoms: _549  and  _550
REMARK  219  A    between atoms: _549  and  _552
REMARK  220  A    between atoms: _552  and  _553
REMARK  221  A    between atoms: _558  and  _559
REMARK  222  A    between atoms: _561  and  _563
REMARK  223  A    between atoms: _563  and  _564
REMARK  224  A    between atoms: _563  and  _566
REMARK  225  A    between atoms: _566  and  _567
REMARK  226  A    between atoms: _572  and  _573
REMARK  227  A    between atoms: _575  and  _577
REMARK  228  A    between atoms: _577  and  _578
REMARK                            x       y       z     vdW  Elec       q    Type
REMARK                         _______ _______ _______ _____ _____    ______ ____
ROOT
ATOM      1  C   LEU A   2      -3.267   5.841 -11.185  0.00  0.00    +0.241 C 
ATOM      2  N   GLN A   3      -3.500   4.987 -10.198  0.00  0.00    -0.297 N 
ATOM      3  H   GLN A   3      -3.381   5.306  -9.215  0.00  0.00    +0.150 HD
ATOM      4  O   LEU A   2      -3.370   5.533 -12.361  0.00  0.00    -0.273 OA
ENDROOT
BRANCH   2   5
ATOM      5  CA  GLN A   3      -3.923   3.600 -10.454  0.00  0.00    +0.149 C 
BRANCH   5   6
ATOM      6  C   GLN A   3      -5.425   3.408 -10.346  0.00  0.00    +0.241 C 
ATOM      7  N   ASP A   4      -6.044   4.028  -9.347  0.00  0.00    -0.298 N 
ATOM      8  H   ASP A   4      -5.507   4.664  -8.723  0.00  0.00    +0.150 HD
ATOM      9  O   GLN A   3      -6.012   2.692 -11.145  0.00  0.00    -0.273 OA
BRANCH   7  10
ATOM     10  CA  ASP A   4      -7.463   3.826  -9.118  0.00  0.00    +0.148 C 
BRANCH  10  11
ATOM     11  C   ASP A   4      -8.072   4.891  -8.209  0.00  0.00    +0.227 C 
ATOM     12  O   ASP A   4      -7.447   5.313  -7.231  0.00  0.00    -0.286 OA
ENDBRANCH  10  11
BRANCH  10  13
ATOM     13  CB  ASP A   4      -7.692   2.436  -8.504  0.00  0.00    +0.142 C 
BRANCH  13  14
ATOM     14  CG  ASP A   4      -9.133   1.950  -8.652  0.00  0.00    +0.367 C 
ATOM     15  OD2 ASP A   4      -9.489   0.957  -7.982  0.00  0.00    -0.246 OA
ATOM     16  OD1 ASP A   4      -9.905   2.537  -9.443  0.00  0.00    -0.246 OA
ENDBRANCH  13  14
ENDBRANCH  10  13
ENDBRANCH   7  10
ENDBRANCH   5   6
BRANCH   5  17
ATOM     17  CB  GLN A   3      -3.241   2.629  -9.489  0.00  0.00    +0.039 C 
BRANCH  17  18
ATOM     18  CG  GLN A   3      -1.739   2.809  -9.380  0.00  0.00    +0.087 C 
BRANCH  18  19
ATOM     19  CD  GLN A   3      -1.009   2.655 -10.715  0.00  0.00    +0.219 C 
ATOM     20  OE1 GLN A   3       0.183   2.933 -10.803  0.00  0.00    -0.275 OA
ATOM     21  NE2 GLN A   3      -1.718   2.209 -11.758  0.00  0.00    -0.329 N 
ATOM     22 HE21 GLN A   3      -2.727   1.984 -11.643  0.00  0.00    +0.145 HD
ATOM     23 HE22 GLN A   3      -1.260   2.087 -12.684  0.00  0.00    +0.145 HD
ENDBRANCH  18  19
ENDBRANCH  17  18
ENDBRANCH   5  17
ENDBRANCH   2   5
BRANCH   1  24
ATOM     24  CA  LEU A   2      -2.855   7.260 -10.805  0.00  0.00    +0.149 C 
BRANCH  24  27
ATOM     25  C   THR A   1      -0.440   7.308 -10.800  0.00  0.00    +0.241 C 
ATOM     26  O   THR A   1      -0.377   6.777  -9.697  0.00  0.00    -0.274 OA
ATOM     27  N   LEU A   2      -1.582   7.584 -11.407  0.00  0.00    -0.297 N 
ATOM     28  H   LEU A   2      -1.563   8.045 -12.339  0.00  0.00    +0.150 HD
BRANCH  25  29
ATOM     29  CA  THR A   1       0.823   7.723 -11.529  0.00  0.00    +0.172 C 
BRANCH  29  30
ATOM     30  N   THR A   1       1.435   8.723 -10.680  0.00  0.00    -0.236 NA
ATOM     31  H   THR A   1       1.670   8.466  -9.700  0.00  0.00    +0.142 HD
ENDBRANCH  29  30
BRANCH  29  32
ATOM     32  CB  THR A   1       1.748   6.507 -11.737  0.00  0.00    +0.135 C 
ATOM     33  CG2 THR A   1       1.073   5.431 -12.576  0.00  0.00    +0.034 C 
BRANCH  32  34
ATOM     34  OG1 THR A   1       2.930   6.930 -12.416  0.00  0.00    -0.383 OA
ATOM     35  HG1 THR A   1       3.527   6.152 -12.552  0.00  0.00    +0.210 HD
ENDBRANCH  32  34
ENDBRANCH  29  32
ENDBRANCH  25  29
ENDBRANCH  24  27
BRANCH  24  36
ATOM     36  CB  LEU A   2      -3.899   8.261 -11.292  0.00  0.00    +0.029 C 
BRANCH  36  37
ATOM     37  CG  LEU A   2      -5.206   8.297 -10.512  0.00  0.00    +0.002 C 
ATOM     38  CD2 LEU A   2      -4.999   8.849  -9.103  0.00  0.00    +0.000 C 
ATOM     39  CD1 LEU A   2      -6.233   9.126 -11.288  0.00  0.00    +0.000 C 
ENDBRANCH  36  37
ENDBRANCH  24  36
ENDBRANCH   1  24
TORSDOF 17
REMARK  Name = ../refined-set-2016/2byr/2byr_pocket.pdb
REMARK  228 active torsions:
REMARK  status: ('A' for Active; 'I' for Inactive)
REMARK    1  A    between atoms: _1  and  _3
REMARK    2  A    between atoms: _3  and  _4
REMARK    3  A    between atoms: _3  and  _6
REMARK    4  A    between atoms: _6  and  _7
REMARK    5  A    between atoms: _10  and  _12
REMARK    6  A    between atoms: _12  and  _13
REMARK    7  A    between atoms: _12  and  _15
REMARK    8  A    between atoms: _15  and  _16
REMARK    9  A    between atoms: _19  and  _21
REMARK   10  A    between atoms: _21  and  _22
REMARK   11  A    between atoms: _25  and  _27
REMARK   12  A    between atoms: _27  and  _28
REMARK   13  A    between atoms: _27  and  _30
REMARK   14  A    between atoms: _30  and  _31
REMARK   15  A    between atoms: _36  and  _37
REMARK   16  A    between atoms: _39  and  _41
REMARK   17  A    between atoms: _41  and  _42
REMARK   18  A    between atoms: _41  and  _44
REMARK   19  A    between atoms: _44  and  _45
REMARK   20  A    between atoms: _47  and  _49
REMARK   21  A    between atoms: _49  and  _50
REMARK   22  A    between atoms: _49  and  _52
REMARK   23  A    between atoms: _52  and  _53
REMARK   24  A    between atoms: _55  and  _57
REMARK   25  A    between atoms: _57  and  _58
REMARK   26  A    between atoms: _57  and  _60
REMARK   27  A    between atoms: _60  and  _61
REMARK   28  A    between atoms: _61  and  _62
REMARK   29  A    between atoms: _64  and  _66
REMARK   30  A    between atoms: _66  and  _67
REMARK   31  A    between atoms: _70  and  _72
REMARK   32  A    between atoms: _72  and  _73
REMARK   33  A    between atoms: _72  and  _75
REMARK   34  A    between atoms: _78  and  _80
REMARK   35  A    between atoms: _80  and  _81
REMARK   36  A    between atoms: _80  and  _83
REMARK   37  A    between atoms: _83  and  _84
REMARK   38  A    between atoms: _84  and  _85
REMARK   39  A    between atoms: _85  and  _86
REMARK   40  A    between atoms: _86  and  _87
REMARK   41  A    between atoms: _91  and  _93
REMARK   42  A    between atoms: _93  and  _94
REMARK   43  A    between atoms: _93  and  _96
REMARK   44  A    between atoms: _96  and  _97
REMARK   45  A    between atoms: _103  and  _105
REMARK   46  A    between atoms: _105  and  _106
REMARK   47  A    between atoms: _108  and  _110
REMARK   48  A    between atoms: _110  and  _111
REMARK   49  A    between atoms: _110  and  _113
REMARK   50  A    between atoms: _113  and  _114
REMARK   51  A    between atoms: _116  and  _118
REMARK   52  A    between atoms: _118  and  _119
REMARK   53  A    between atoms: _118  and  _121
REMARK   54  A    between atoms: _121  and  _122
REMARK   55  A    between atoms: _132  and  _134
REMARK   56  A    between atoms: _134  and  _135
REMARK   57  A    between atoms: _134  and  _137
REMARK   58  A    between atoms: _140  and  _142
REMARK   59  A    between atoms: _142  and  _143
REMARK   60  A    between atoms: _142  and  _145
REMARK   61  A    between atoms: _145  and  _146
REMARK   62  A    between atoms: _151  and  _152
REMARK   63  A    between atoms: _154  and  _156
REMARK   64  A    between atoms: _156  and  _157
REMARK   65  A    between atoms: _156  and  _159
REMARK   66  A    between atoms: _159  and  _160
REMARK   67  A    between atoms: _162  and  _164
REMARK   68  A    between atoms: _164  and  _165
REMARK   69  A    between atoms: _167  and  _169
REMARK   70  A    between atoms: _169  and  _170
REMARK   71  A    between atoms: _169  and  _172
REMARK   72  A    between atoms: _172  and  _173
REMARK   73  A    between atoms: _173  and  _174
REMARK   74  A    between atoms: _177  and  _179
REMARK   75  A    between atoms: _179  and  _180
REMARK   76  A    between atoms: _179  and  _182
REMARK   77  A    between atoms: _182  and  _183
REMARK   78  A    between atoms: _183  and  _184
REMARK   79  A    between atoms: _189  and  _191
REMARK   80  A    between atoms: _191  and  _192
REMARK   81  A    between atoms: _191  and  _194
REMARK   82  A    between atoms: _197  and  _199
REMARK   83  A    between atoms: _199  and  _200
REMARK   84  A    between atoms: _199  and  _202
REMARK   85  A    between atoms: _202  and  _203
REMARK   86  A    between atoms: _203  and  _204
REMARK   87  A    between atoms: _209  and  _211
REMARK   88  A    between atoms: _211  and  _212
REMARK   89  A    between atoms: _211  and  _214
REMARK   90  A    between atoms: _214  and  _215
REMARK   91  A    between atoms: _220  and  _222
REMARK   92  A    between atoms: _222  and  _223
REMARK   93  A    between atoms: _222  and  _225
REMARK   94  A    between atoms: _225  and  _226
REMARK   95  A    between atoms: _231  and  _232
REMARK   96  A    between atoms: _234  and  _236
REMARK   97  A    between atoms: _236  and  _237
REMARK   98  A    between atoms: _236  and  _239
REMARK   99  A    between atoms: _239  and  _240
REMARK  100  A    between atoms: _242  and  _244
REMARK  101  A    between atoms: _251  and  _252
REMARK  102  A    between atoms: _256  and  _258
REMARK  103  A    between atoms: _258  and  _259
REMARK  104  A    between atoms: _258  and  _261
REMARK  105  A    between atoms: _261  and  _262
REMARK  106  A    between atoms: _262  and  _263
REMARK  107  A    between atoms: _267  and  _268
REMARK  108  A    between atoms: _273  and  _275
REMARK  109  A    between atoms: _275  and  _276
REMARK  110  A    between atoms: _275  and  _278
REMARK  111  A    between atoms: _278  and  _279
REMARK  112  A    between atoms: _284  and  _285
REMARK  113  A    between atoms: _287  and  _289
REMARK  114  A    between atoms: _289  and  _290
REMARK  115  A    between atoms: _289  and  _292
REMARK  116  A    between atoms: _292  and  _293
REMARK  117  A    between atoms: _296  and  _298
REMARK  118  A    between atoms: _298  and  _299
REMARK  119  A    between atoms: _298  and  _301
REMARK  120  A    between atoms: _301  and  _302
REMARK  121  A    between atoms: _305  and  _307
REMARK  122  A    between atoms: _307  and  _308
REMARK  123  A    between atoms: _307  and  _310
REMARK  124  A    between atoms: _313  and  _315
REMARK  125  A    between atoms: _315  and  _316
REMARK  126  A    between atoms: _315  and  _318
REMARK  127  A    between atoms: _318  and  _319
REMARK  128  A    between atoms: _324  and  _326
REMARK  129  A    between atoms: _326  and  _327
REMARK  130  A    between atoms: _326  and  _329
REMARK  131  A    between atoms: _329  and  _330
REMARK  132  A    between atoms: _333  and  _335
REMARK  133  A    between atoms: _335  and  _336
REMARK  134  A    between atoms: _335  and  _338
REMARK  135  A    between atoms: _338  and  _339
REMARK  136  A    between atoms: _342  and  _344
REMARK  137  A    between atoms: _344  and  _345
REMARK  138  A    between atoms: _344  and  _347
REMARK  139  A    between atoms: _347  and  _348
REMARK  140  A    between atoms: _348  and  _349
REMARK  141  A    between atoms: _354  and  _356
REMARK  142  A    between atoms: _356  and  _357
REMARK  143  A    between atoms: _356  and  _359
REMARK  144  A    between atoms: _359  and  _360
REMARK  145  A    between atoms: _363  and  _365
REMARK  146  A    between atoms: _365  and  _366
REMARK  147  A    between atoms: _365  and  _368
REMARK  148  A    between atoms: _371  and  _373
REMARK  149  A    between atoms: _373  and  _374
REMARK  150  A    between atoms: _373  and  _376
REMARK  151  A    between atoms: _376  and  _377
REMARK  152  A    between atoms: _382  and  _383
REMARK  153  A    between atoms: _385  and  _387
REMARK  154  A    between atoms: _387  and  _388
REMARK  155  A    between atoms: _387  and  _390
REMARK  156  A    between atoms: _390  and  _391
REMARK  157  A    between atoms: _391  and  _392
REMARK  158  A    between atoms: _395  and  _397
REMARK  159  A    between atoms: _397  and  _398
REMARK  160  A    between atoms: _397  and  _400
REMARK  161  A    between atoms: _400  and  _401
REMARK  162  A    between atoms: _401  and  _402
REMARK  163  A    between atoms: _407  and  _409
REMARK  164  A    between atoms: _409  and  _410
REMARK  165  A    between atoms: _409  and  _412
REMARK  166  A    between atoms: _412  and  _413
REMARK  167  A    between atoms: _413  and  _414
REMARK  168  A    between atoms: _414  and  _415
REMARK  169  A    between atoms: _424  and  _426
REMARK  170  A    between atoms: _426  and  _427
REMARK  171  A    between atoms: _426  and  _429
REMARK  172  A    between atoms: _429  and  _430
REMARK  173  A    between atoms: _430  and  _431
REMARK  174  A    between atoms: _431  and  _432
REMARK  175  A    between atoms: _441  and  _443
REMARK  176  A    between atoms: _443  and  _444
REMARK  177  A    between atoms: _443  and  _446
REMARK  178  A    between atoms: _446  and  _447
REMARK  179  A    between atoms: _450  and  _451
REMARK  180  A    between atoms: _456  and  _458
REMARK  181  A    between atoms: _458  and  _459
REMARK  182  A    between atoms: _458  and  _461
REMARK  183  A    between atoms: _461  and  _462
REMARK  184  A    between atoms: _465  and  _467
REMARK  185  A    between atoms: _467  and  _468
REMARK  186  A    between atoms: _471  and  _473
REMARK  187  A    between atoms: _473  and  _474
REMARK  188  A    between atoms: _473  and  _476
REMARK  189  A    between atoms: _479  and  _481
REMARK  190  A    between atoms: _481  and  _482
REMARK  191  A    between atoms: _481  and  _484
REMARK  192  A    between atoms: _484  and  _485
REMARK  193  A    between atoms: _485  and  _486
REMARK  194  A    between atoms: _488  and  _490
REMARK  195  A    between atoms: _490  and  _491
REMARK  196  A    between atoms: _490  and  _493
REMARK  197  A    between atoms: _493  and  _494
REMARK  198  A    between atoms: _500  and  _502
REMARK  199  A    between atoms: _502  and  _503
REMARK  200  A    between atoms: _502  and  _505
REMARK  201  A    between atoms: _505  and  _506
REMARK  202  A    between atoms: _510  and  _511
REMARK  203  A    between atoms: _516  and  _518
REMARK  204  A    between atoms: _518  and  _519
REMARK  205  A    between atoms: _522  and  _524
REMARK  206  A    between atoms: _524  and  _525
REMARK  207  A    between atoms: _524  and  _527
REMARK  208  A    between atoms: _527  and  _528
REMARK  209  A    between atoms: _531  and  _533
REMARK  210  A    between atoms: _533  and  _534
REMARK  211  A    between atoms: _533  and  _536
REMARK  212  A    between atoms: _536  and  _537
REMARK  213  A    between atoms: _539  and  _541
REMARK  214  A    between atoms: _541  and  _542
REMARK  215  A    between atoms: _541  and  _544
REMARK  216  A    between atoms: _544  and  _545
REMARK  217  A    between atoms: _547  and  _549
REMARK  218  A    between atoms: _549  and  _550
REMARK  219  A    between atoms: _549  and  _552
REMARK  220  A    between atoms: _552  and  _553
REMARK  221  A    between atoms: _558  and  _559
REMARK  222  A    between atoms: _561  and  _563
REMARK  223  A    between atoms: _563  and  _564
REMARK  224  A    between atoms: _563  and  _566
REMARK  225  A    between atoms: _566  and  _567
REMARK  226  A    between atoms: _572  and  _573
REMARK  227  A    between atoms: _575  and  _577
REMARK  228  A    between atoms: _577  and  _578
REMARK                            x       y       z     vdW  Elec       q    Type
REMARK                         _______ _______ _______ _____ _____    ______ ____
ROOT
ATOM      1  CA  VAL A   1      -4.384   4.743  -5.076  0.00  0.00    +0.133 C 
ENDROOT
BRANCH   1   2
ATOM      2  CB  VAL A   1      -4.693   3.240  -5.289  0.00  0.00    +0.023 C 
ATOM      3  CG2 VAL A   1      -5.646   2.748  -4.211  0.00  0.00    +0.002 C 
ATOM      4  CG1 VAL A   1      -3.425   2.410  -5.282  0.00  0.00    +0.002 C 
ENDBRANCH   1   2
BRANCH   1   5
ATOM      5  N   VAL A   1      -5.591   5.535  -5.128  0.00  0.00    -0.239 NA
ATOM      6  H   VAL A   1      -6.182   5.480  -5.982  0.00  0.00    +0.142 HD
ENDBRANCH   1   5
BRANCH   1   7
ATOM      7  C   VAL A   1      -3.507   5.292  -6.190  0.00  0.00    +0.224 C 
ATOM      8  O   VAL A   1      -3.936   5.378  -7.342  0.00  0.00    -0.287 OA
ENDBRANCH   1   7
TORSDOF 3
REMARK  Name = ../refined-set-2016/2byr/2byr_pocket.pdb
REMARK  228 active torsions:
REMARK  status: ('A' for Active; 'I' for Inactive)
REMARK    1  A    between atoms: _1  and  _3
REMARK    2  A    between atoms: _3  and  _4
REMARK    3  A    between atoms: _3  and  _6
REMARK    4  A    between atoms: _6  and  _7
REMARK    5  A    between atoms: _10  and  _12
REMARK    6  A    between atoms: _12  and  _13
REMARK    7  A    between atoms: _12  and  _15
REMARK    8  A    between atoms: _15  and  _16
REMARK    9  A    between atoms: _19  and  _21
REMARK   10  A    between atoms: _21  and  _22
REMARK   11  A    between atoms: _25  and  _27
REMARK   12  A    between atoms: _27  and  _28
REMARK   13  A    between atoms: _27  and  _30
REMARK   14  A    between atoms: _30  and  _31
REMARK   15  A    between atoms: _36  and  _37
REMARK   16  A    between atoms: _39  and  _41
REMARK   17  A    between atoms: _41  and  _42
REMARK   18  A    between atoms: _41  and  _44
REMARK   19  A    between atoms: _44  and  _45
REMARK   20  A    between atoms: _47  and  _49
REMARK   21  A    between atoms: _49  and  _50
REMARK   22  A    between atoms: _49  and  _52
REMARK   23  A    between atoms: _52  and  _53
REMARK   24  A    between atoms: _55  and  _57
REMARK   25  A    between atoms: _57  and  _58
REMARK   26  A    between atoms: _57  and  _60
REMARK   27  A    between atoms: _60  and  _61
REMARK   28  A    between atoms: _61  and  _62
REMARK   29  A    between atoms: _64  and  _66
REMARK   30  A    between atoms: _66  and  _67
REMARK   31  A    between atoms: _70  and  _72
REMARK   32  A    between atoms: _72  and  _73
REMARK   33  A    between atoms: _72  and  _75
REMARK   34  A    between atoms: _78  and  _80
REMARK   35  A    between atoms: _80  and  _81
REMARK   36  A    between atoms: _80  and  _83
REMARK   37  A    between atoms: _83  and  _84
REMARK   38  A    between atoms: _84  and  _85
REMARK   39  A    between atoms: _85  and  _86
REMARK   40  A    between atoms: _86  and  _87
REMARK   41  A    between atoms: _91  and  _93
REMARK   42  A    between atoms: _93  and  _94
REMARK   43  A    between atoms: _93  and  _96
REMARK   44  A    between atoms: _96  and  _97
REMARK   45  A    between atoms: _103  and  _105
REMARK   46  A    between atoms: _105  and  _106
REMARK   47  A    between atoms: _108  and  _110
REMARK   48  A    between atoms: _110  and  _111
REMARK   49  A    between atoms: _110  and  _113
REMARK   50  A    between atoms: _113  and  _114
REMARK   51  A    between atoms: _116  and  _118
REMARK   52  A    between atoms: _118  and  _119
REMARK   53  A    between atoms: _118  and  _121
REMARK   54  A    between atoms: _121  and  _122
REMARK   55  A    between atoms: _132  and  _134
REMARK   56  A    between atoms: _134  and  _135
REMARK   57  A    between atoms: _134  and  _137
REMARK   58  A    between atoms: _140  and  _142
REMARK   59  A    between atoms: _142  and  _143
REMARK   60  A    between atoms: _142  and  _145
REMARK   61  A    between atoms: _145  and  _146
REMARK   62  A    between atoms: _151  and  _152
REMARK   63  A    between atoms: _154  and  _156
REMARK   64  A    between atoms: _156  and  _157
REMARK   65  A    between atoms: _156  and  _159
REMARK   66  A    between atoms: _159  and  _160
REMARK   67  A    between atoms: _162  and  _164
REMARK   68  A    between atoms: _164  and  _165
REMARK   69  A    between atoms: _167  and  _169
REMARK   70  A    between atoms: _169  and  _170
REMARK   71  A    between atoms: _169  and  _172
REMARK   72  A    between atoms: _172  and  _173
REMARK   73  A    between atoms: _173  and  _174
REMARK   74  A    between atoms: _177  and  _179
REMARK   75  A    between atoms: _179  and  _180
REMARK   76  A    between atoms: _179  and  _182
REMARK   77  A    between atoms: _182  and  _183
REMARK   78  A    between atoms: _183  and  _184
REMARK   79  A    between atoms: _189  and  _191
REMARK   80  A    between atoms: _191  and  _192
REMARK   81  A    between atoms: _191  and  _194
REMARK   82  A    between atoms: _197  and  _199
REMARK   83  A    between atoms: _199  and  _200
REMARK   84  A    between atoms: _199  and  _202
REMARK   85  A    between atoms: _202  and  _203
REMARK   86  A    between atoms: _203  and  _204
REMARK   87  A    between atoms: _209  and  _211
REMARK   88  A    between atoms: _211  and  _212
REMARK   89  A    between atoms: _211  and  _214
REMARK   90  A    between atoms: _214  and  _215
REMARK   91  A    between atoms: _220  and  _222
REMARK   92  A    between atoms: _222  and  _223
REMARK   93  A    between atoms: _222  and  _225
REMARK   94  A    between atoms: _225  and  _226
REMARK   95  A    between atoms: _231  and  _232
REMARK   96  A    between atoms: _234  and  _236
REMARK   97  A    between atoms: _236  and  _237
REMARK   98  A    between atoms: _236  and  _239
REMARK   99  A    between atoms: _239  and  _240
REMARK  100  A    between atoms: _242  and  _244
REMARK  101  A    between atoms: _251  and  _252
REMARK  102  A    between atoms: _256  and  _258
REMARK  103  A    between atoms: _258  and  _259
REMARK  104  A    between atoms: _258  and  _261
REMARK  105  A    between atoms: _261  and  _262
REMARK  106  A    between atoms: _262  and  _263
REMARK  107  A    between atoms: _267  and  _268
REMARK  108  A    between atoms: _273  and  _275
REMARK  109  A    between atoms: _275  and  _276
REMARK  110  A    between atoms: _275  and  _278
REMARK  111  A    between atoms: _278  and  _279
REMARK  112  A    between atoms: _284  and  _285
REMARK  113  A    between atoms: _287  and  _289
REMARK  114  A    between atoms: _289  and  _290
REMARK  115  A    between atoms: _289  and  _292
REMARK  116  A    between atoms: _292  and  _293
REMARK  117  A    between atoms: _296  and  _298
REMARK  118  A    between atoms: _298  and  _299
REMARK  119  A    between atoms: _298  and  _301
REMARK  120  A    between atoms: _301  and  _302
REMARK  121  A    between atoms: _305  and  _307
REMARK  122  A    between atoms: _307  and  _308
REMARK  123  A    between atoms: _307  and  _310
REMARK  124  A    between atoms: _313  and  _315
REMARK  125  A    between atoms: _315  and  _316
REMARK  126  A    between atoms: _315  and  _318
REMARK  127  A    between atoms: _318  and  _319
REMARK  128  A    between atoms: _324  and  _326
REMARK  129  A    between atoms: _326  and  _327
REMARK  130  A    between atoms: _326  and  _329
REMARK  131  A    between atoms: _329  and  _330
REMARK  132  A    between atoms: _333  and  _335
REMARK  133  A    between atoms: _335  and  _336
REMARK  134  A    between atoms: _335  and  _338
REMARK  135  A    between atoms: _338  and  _339
REMARK  136  A    between atoms: _342  and  _344
REMARK  137  A    between atoms: _344  and  _345
REMARK  138  A    between atoms: _344  and  _347
REMARK  139  A    between atoms: _347  and  _348
REMARK  140  A    between atoms: _348  and  _349
REMARK  141  A    between atoms: _354  and  _356
REMARK  142  A    between atoms: _356  and  _357
REMARK  143  A    between atoms: _356  and  _359
REMARK  144  A    between atoms: _359  and  _360
REMARK  145  A    between atoms: _363  and  _365
REMARK  146  A    between atoms: _365  and  _366
REMARK  147  A    between atoms: _365  and  _368
REMARK  148  A    between atoms: _371  and  _373
REMARK  149  A    between atoms: _373  and  _374
REMARK  150  A    between atoms: _373  and  _376
REMARK  151  A    between atoms: _376  and  _377
REMARK  152  A    between atoms: _382  and  _383
REMARK  153  A    between atoms: _385  and  _387
REMARK  154  A    between atoms: _387  and  _388
REMARK  155  A    between atoms: _387  and  _390
REMARK  156  A    between atoms: _390  and  _391
REMARK  157  A    between atoms: _391  and  _392
REMARK  158  A    between atoms: _395  and  _397
REMARK  159  A    between atoms: _397  and  _398
REMARK  160  A    between atoms: _397  and  _400
REMARK  161  A    between atoms: _400  and  _401
REMARK  162  A    between atoms: _401  and  _402
REMARK  163  A    between atoms: _407  and  _409
REMARK  164  A    between atoms: _409  and  _410
REMARK  165  A    between atoms: _409  and  _412
REMARK  166  A    between atoms: _412  and  _413
REMARK  167  A    between atoms: _413  and  _414
REMARK  168  A    between atoms: _414  and  _415
REMARK  169  A    between atoms: _424  and  _426
REMARK  170  A    between atoms: _426  and  _427
REMARK  171  A    between atoms: _426  and  _429
REMARK  172  A    between atoms: _429  and  _430
REMARK  173  A    between atoms: _430  and  _431
REMARK  174  A    between atoms: _431  and  _432
REMARK  175  A    between atoms: _441  and  _443
REMARK  176  A    between atoms: _443  and  _444
REMARK  177  A    between atoms: _443  and  _446
REMARK  178  A    between atoms: _446  and  _447
REMARK  179  A    between atoms: _450  and  _451
REMARK  180  A    between atoms: _456  and  _458
REMARK  181  A    between atoms: _458  and  _459
REMARK  182  A    between atoms: _458  and  _461
REMARK  183  A    between atoms: _461  and  _462
REMARK  184  A    between atoms: _465  and  _467
REMARK  185  A    between atoms: _467  and  _468
REMARK  186  A    between atoms: _471  and  _473
REMARK  187  A    between atoms: _473  and  _474
REMARK  188  A    between atoms: _473  and  _476
REMARK  189  A    between atoms: _479  and  _481
REMARK  190  A    between atoms: _481  and  _482
REMARK  191  A    between atoms: _481  and  _484
REMARK  192  A    between atoms: _484  and  _485
REMARK  193  A    between atoms: _485  and  _486
REMARK  194  A    between atoms: _488  and  _490
REMARK  195  A    between atoms: _490  and  _491
REMARK  196  A    between atoms: _490  and  _493
REMARK  197  A    between atoms: _493  and  _494
REMARK  198  A    between atoms: _500  and  _502
REMARK  199  A    between atoms: _502  and  _503
REMARK  200  A    between atoms: _502  and  _505
REMARK  201  A    between atoms: _505  and  _506
REMARK  202  A    between atoms: _510  and  _511
REMARK  203  A    between atoms: _516  and  _518
REMARK  204  A    between atoms: _518  and  _519
REMARK  205  A    between atoms: _522  and  _524
REMARK  206  A    between atoms: _524  and  _525
REMARK  207  A    between atoms: _524  and  _527
REMARK  208  A    between atoms: _527  and  _528
REMARK  209  A    between atoms: _531  and  _533
REMARK  210  A    between atoms: _533  and  _534
REMARK  211  A    between atoms: _533  and  _536
REMARK  212  A    between atoms: _536  and  _537
REMARK  213  A    between atoms: _539  and  _541
REMARK  214  A    between atoms: _541  and  _542
REMARK  215  A    between atoms: _541  and  _544
REMARK  216  A    between atoms: _544  and  _545
REMARK  217  A    between atoms: _547  and  _549
REMARK  218  A    between atoms: _549  and  _550
REMARK  219  A    between atoms: _549  and  _552
REMARK  220  A    between atoms: _552  and  _553
REMARK  221  A    between atoms: _558  and  _559
REMARK  222  A    between atoms: _561  and  _563
REMARK  223  A    between atoms: _563  and  _564
REMARK  224  A    between atoms: _563  and  _566
REMARK  225  A    between atoms: _566  and  _567
REMARK  226  A    between atoms: _572  and  _573
REMARK  227  A    between atoms: _575  and  _577
REMARK  228  A    between atoms: _577  and  _578
REMARK                            x       y       z     vdW  Elec       q    Type
REMARK                         _______ _______ _______ _____ _____    ______ ____
ROOT
ATOM      1  CA  GLU A   2       4.353   9.008  -6.126  0.00  0.00    +0.149 C 
ENDROOT
BRANCH   1   3
ATOM      2  C   TYR A   1       2.953   7.310  -7.200  0.00  0.00    +0.239 C 
ATOM      3  N   GLU A   2       3.763   7.684  -6.217  0.00  0.00    -0.297 N 
ATOM      4  H   GLU A   2       3.987   6.993  -5.473  0.00  0.00    +0.150 HD
ATOM      5  O   TYR A   1       2.631   8.038  -8.132  0.00  0.00    -0.274 OA
BRANCH   2   6
ATOM      6  CA  TYR A   1       2.447   5.895  -7.134  0.00  0.00    +0.149 C 
BRANCH   6   7
ATOM      7  N   TYR A   1       1.007   5.975  -7.357  0.00  0.00    -0.238 NA
ATOM      8  H   TYR A   1       0.670   6.136  -8.328  0.00  0.00    +0.142 HD
ENDBRANCH   6   7
BRANCH   6   9
ATOM      9  CB  TYR A   1       3.166   5.074  -8.223  0.00  0.00    +0.053 C 
BRANCH   9  10
ATOM     10  CG  TYR A   1       2.673   3.644  -8.421  0.00  0.00    -0.020 A 
ATOM     11  CD2 TYR A   1       1.912   2.998  -7.443  0.00  0.00    -0.001 A 
ATOM     12  CE2 TYR A   1       1.455   1.699  -7.623  0.00  0.00    +0.036 A 
ATOM     13  CZ  TYR A   1       1.771   1.004  -8.789  0.00  0.00    +0.134 A 
ATOM     14  CE1 TYR A   1       2.535   1.620  -9.784  0.00  0.00    +0.036 A 
ATOM     15  CD1 TYR A   1       2.979   2.936  -9.595  0.00  0.00    -0.001 A 
BRANCH  13  16
ATOM     16  OH  TYR A   1       1.316  -0.306  -8.931  0.00  0.00    -0.506 OA
ATOM     17  HH  TYR A   1       1.617  -0.666  -9.803  0.00  0.00    +0.292 HD
ENDBRANCH  13  16
ENDBRANCH   9  10
ENDBRANCH   6   9
ENDBRANCH   2   6
ENDBRANCH   1   3
BRANCH   1  18
ATOM     18  C   GLU A   2       5.865   8.880  -6.358  0.00  0.00    +0.241 C 
ATOM     19  O   GLU A   2       6.597   8.427  -5.496  0.00  0.00    -0.273 OA
ATOM     20  N   GLN A   3       6.332   9.265  -7.534  0.00  0.00    -0.298 N 
ATOM     21  H   GLN A   3       5.672   9.614  -8.258  0.00  0.00    +0.150 HD
BRANCH  20  22
ATOM     22  CA  GLN A   3       7.754   9.208  -7.830  0.00  0.00    +0.137 C 
BRANCH  22  23
ATOM     23  C   GLN A   3       8.475  10.414  -7.219  0.00  0.00    +0.227 C 
ATOM     24  O   GLN A   3       8.129  11.557  -7.521  0.00  0.00    -0.286 OA
ENDBRANCH  22  23
BRANCH  22  25
ATOM     25  CB  GLN A   3       7.972   9.163  -9.344  0.00  0.00    +0.037 C 
BRANCH  25  26
ATOM     26  CG  GLN A   3       9.408   8.909  -9.734  0.00  0.00    +0.087 C 
BRANCH  26  27
ATOM     27  CD  GLN A   3       9.626   8.806 -11.239  0.00  0.00    +0.219 C 
ATOM     28  NE2 GLN A   3       9.174   7.700 -11.838  0.00  0.00    -0.329 N 
ATOM     29 HE21 GLN A   3       8.680   6.972 -11.282  0.00  0.00    +0.145 HD
ATOM     30 HE22 GLN A   3       9.316   7.567 -12.860  0.00  0.00    +0.145 HD
ATOM     31  OE1 GLN A   3      10.213   9.693 -11.845  0.00  0.00    -0.275 OA
ENDBRANCH  26  27
ENDBRANCH  25  26
ENDBRANCH  22  25
ENDBRANCH  20  22
ENDBRANCH   1  18
BRANCH   1  32
ATOM     32  CB  GLU A   2       4.044   9.575  -4.739  0.00  0.00    +0.041 C 
BRANCH  32  33
ATOM     33  CG  GLU A   2       4.661  10.908  -4.416  0.00  0.00    +0.116 C 
BRANCH  33  34
ATOM     34  CD  GLU A   2       4.417  11.337  -2.964  0.00  0.00    +0.365 C 
ATOM     35  OE2 GLU A   2       3.605  10.709  -2.255  0.00  0.00    -0.246 OA
ATOM     36  OE1 GLU A   2       5.050  12.322  -2.523  0.00  0.00    -0.246 OA
ENDBRANCH  33  34
ENDBRANCH  32  33
ENDBRANCH   1  32
TORSDOF 15
REMARK  Name = ../refined-set-2016/2byr/2byr_pocket.pdb
REMARK  228 active torsions:
REMARK  status: ('A' for Active; 'I' for Inactive)
REMARK    1  A    between atoms: _1  and  _3
REMARK    2  A    between atoms: _3  and  _4
REMARK    3  A    between atoms: _3  and  _6
REMARK    4  A    between atoms: _6  and  _7
REMARK    5  A    between atoms: _10  and  _12
REMARK    6  A    between atoms: _12  and  _13
REMARK    7  A    between atoms: _12  and  _15
REMARK    8  A    between atoms: _15  and  _16
REMARK    9  A    between atoms: _19  and  _21
REMARK   10  A    between atoms: _21  and  _22
REMARK   11  A    between atoms: _25  and  _27
REMARK   12  A    between atoms: _27  and  _28
REMARK   13  A    between atoms: _27  and  _30
REMARK   14  A    between atoms: _30  and  _31
REMARK   15  A    between atoms: _36  and  _37
REMARK   16  A    between atoms: _39  and  _41
REMARK   17  A    between atoms: _41  and  _42
REMARK   18  A    between atoms: _41  and  _44
REMARK   19  A    between atoms: _44  and  _45
REMARK   20  A    between atoms: _47  and  _49
REMARK   21  A    between atoms: _49  and  _50
REMARK   22  A    between atoms: _49  and  _52
REMARK   23  A    between atoms: _52  and  _53
REMARK   24  A    between atoms: _55  and  _57
REMARK   25  A    between atoms: _57  and  _58
REMARK   26  A    between atoms: _57  and  _60
REMARK   27  A    between atoms: _60  and  _61
REMARK   28  A    between atoms: _61  and  _62
REMARK   29  A    between atoms: _64  and  _66
REMARK   30  A    between atoms: _66  and  _67
REMARK   31  A    between atoms: _70  and  _72
REMARK   32  A    between atoms: _72  and  _73
REMARK   33  A    between atoms: _72  and  _75
REMARK   34  A    between atoms: _78  and  _80
REMARK   35  A    between atoms: _80  and  _81
REMARK   36  A    between atoms: _80  and  _83
REMARK   37  A    between atoms: _83  and  _84
REMARK   38  A    between atoms: _84  and  _85
REMARK   39  A    between atoms: _85  and  _86
REMARK   40  A    between atoms: _86  and  _87
REMARK   41  A    between atoms: _91  and  _93
REMARK   42  A    between atoms: _93  and  _94
REMARK   43  A    between atoms: _93  and  _96
REMARK   44  A    between atoms: _96  and  _97
REMARK   45  A    between atoms: _103  and  _105
REMARK   46  A    between atoms: _105  and  _106
REMARK   47  A    between atoms: _108  and  _110
REMARK   48  A    between atoms: _110  and  _111
REMARK   49  A    between atoms: _110  and  _113
REMARK   50  A    between atoms: _113  and  _114
REMARK   51  A    between atoms: _116  and  _118
REMARK   52  A    between atoms: _118  and  _119
REMARK   53  A    between atoms: _118  and  _121
REMARK   54  A    between atoms: _121  and  _122
REMARK   55  A    between atoms: _132  and  _134
REMARK   56  A    between atoms: _134  and  _135
REMARK   57  A    between atoms: _134  and  _137
REMARK   58  A    between atoms: _140  and  _142
REMARK   59  A    between atoms: _142  and  _143
REMARK   60  A    between atoms: _142  and  _145
REMARK   61  A    between atoms: _145  and  _146
REMARK   62  A    between atoms: _151  and  _152
REMARK   63  A    between atoms: _154  and  _156
REMARK   64  A    between atoms: _156  and  _157
REMARK   65  A    between atoms: _156  and  _159
REMARK   66  A    between atoms: _159  and  _160
REMARK   67  A    between atoms: _162  and  _164
REMARK   68  A    between atoms: _164  and  _165
REMARK   69  A    between atoms: _167  and  _169
REMARK   70  A    between atoms: _169  and  _170
REMARK   71  A    between atoms: _169  and  _172
REMARK   72  A    between atoms: _172  and  _173
REMARK   73  A    between atoms: _173  and  _174
REMARK   74  A    between atoms: _177  and  _179
REMARK   75  A    between atoms: _179  and  _180
REMARK   76  A    between atoms: _179  and  _182
REMARK   77  A    between atoms: _182  and  _183
REMARK   78  A    between atoms: _183  and  _184
REMARK   79  A    between atoms: _189  and  _191
REMARK   80  A    between atoms: _191  and  _192
REMARK   81  A    between atoms: _191  and  _194
REMARK   82  A    between atoms: _197  and  _199
REMARK   83  A    between atoms: _199  and  _200
REMARK   84  A    between atoms: _199  and  _202
REMARK   85  A    between atoms: _202  and  _203
REMARK   86  A    between atoms: _203  and  _204
REMARK   87  A    between atoms: _209  and  _211
REMARK   88  A    between atoms: _211  and  _212
REMARK   89  A    between atoms: _211  and  _214
REMARK   90  A    between atoms: _214  and  _215
REMARK   91  A    between atoms: _220  and  _222
REMARK   92  A    between atoms: _222  and  _223
REMARK   93  A    between atoms: _222  and  _225
REMARK   94  A    between atoms: _225  and  _226
REMARK   95  A    between atoms: _231  and  _232
REMARK   96  A    between atoms: _234  and  _236
REMARK   97  A    between atoms: _236  and  _237
REMARK   98  A    between atoms: _236  and  _239
REMARK   99  A    between atoms: _239  and  _240
REMARK  100  A    between atoms: _242  and  _244
REMARK  101  A    between atoms: _251  and  _252
REMARK  102  A    between atoms: _256  and  _258
REMARK  103  A    between atoms: _258  and  _259
REMARK  104  A    between atoms: _258  and  _261
REMARK  105  A    between atoms: _261  and  _262
REMARK  106  A    between atoms: _262  and  _263
REMARK  107  A    between atoms: _267  and  _268
REMARK  108  A    between atoms: _273  and  _275
REMARK  109  A    between atoms: _275  and  _276
REMARK  110  A    between atoms: _275  and  _278
REMARK  111  A    between atoms: _278  and  _279
REMARK  112  A    between atoms: _284  and  _285
REMARK  113  A    between atoms: _287  and  _289
REMARK  114  A    between atoms: _289  and  _290
REMARK  115  A    between atoms: _289  and  _292
REMARK  116  A    between atoms: _292  and  _293
REMARK  117  A    between atoms: _296  and  _298
REMARK  118  A    between atoms: _298  and  _299
REMARK  119  A    between atoms: _298  and  _301
REMARK  120  A    between atoms: _301  and  _302
REMARK  121  A    between atoms: _305  and  _307
REMARK  122  A    between atoms: _307  and  _308
REMARK  123  A    between atoms: _307  and  _310
REMARK  124  A    between atoms: _313  and  _315
REMARK  125  A    between atoms: _315  and  _316
REMARK  126  A    between atoms: _315  and  _318
REMARK  127  A    between atoms: _318  and  _319
REMARK  128  A    between atoms: _324  and  _326
REMARK  129  A    between atoms: _326  and  _327
REMARK  130  A    between atoms: _326  and  _329
REMARK  131  A    between atoms: _329  and  _330
REMARK  132  A    between atoms: _333  and  _335
REMARK  133  A    between atoms: _335  and  _336
REMARK  134  A    between atoms: _335  and  _338
REMARK  135  A    between atoms: _338  and  _339
REMARK  136  A    between atoms: _342  and  _344
REMARK  137  A    between atoms: _344  and  _345
REMARK  138  A    between atoms: _344  and  _347
REMARK  139  A    between atoms: _347  and  _348
REMARK  140  A    between atoms: _348  and  _349
REMARK  141  A    between atoms: _354  and  _356
REMARK  142  A    between atoms: _356  and  _357
REMARK  143  A    between atoms: _356  and  _359
REMARK  144  A    between atoms: _359  and  _360
REMARK  145  A    between atoms: _363  and  _365
REMARK  146  A    between atoms: _365  and  _366
REMARK  147  A    between atoms: _365  and  _368
REMARK  148  A    between atoms: _371  and  _373
REMARK  149  A    between atoms: _373  and  _374
REMARK  150  A    between atoms: _373  and  _376
REMARK  151  A    between atoms: _376  and  _377
REMARK  152  A    between atoms: _382  and  _383
REMARK  153  A    between atoms: _385  and  _387
REMARK  154  A    between atoms: _387  and  _388
REMARK  155  A    between atoms: _387  and  _390
REMARK  156  A    between atoms: _390  and  _391
REMARK  157  A    between atoms: _391  and  _392
REMARK  158  A    between atoms: _395  and  _397
REMARK  159  A    between atoms: _397  and  _398
REMARK  160  A    between atoms: _397  and  _400
REMARK  161  A    between atoms: _400  and  _401
REMARK  162  A    between atoms: _401  and  _402
REMARK  163  A    between atoms: _407  and  _409
REMARK  164  A    between atoms: _409  and  _410
REMARK  165  A    between atoms: _409  and  _412
REMARK  166  A    between atoms: _412  and  _413
REMARK  167  A    between atoms: _413  and  _414
REMARK  168  A    between atoms: _414  and  _415
REMARK  169  A    between atoms: _424  and  _426
REMARK  170  A    between atoms: _426  and  _427
REMARK  171  A    between atoms: _426  and  _429
REMARK  172  A    between atoms: _429  and  _430
REMARK  173  A    between atoms: _430  and  _431
REMARK  174  A    between atoms: _431  and  _432
REMARK  175  A    between atoms: _441  and  _443
REMARK  176  A    between atoms: _443  and  _444
REMARK  177  A    between atoms: _443  and  _446
REMARK  178  A    between atoms: _446  and  _447
REMARK  179  A    between atoms: _450  and  _451
REMARK  180  A    between atoms: _456  and  _458
REMARK  181  A    between atoms: _458  and  _459
REMARK  182  A    between atoms: _458  and  _461
REMARK  183  A    between atoms: _461  and  _462
REMARK  184  A    between atoms: _465  and  _467
REMARK  185  A    between atoms: _467  and  _468
REMARK  186  A    between atoms: _471  and  _473
REMARK  187  A    between atoms: _473  and  _474
REMARK  188  A    between atoms: _473  and  _476
REMARK  189  A    between atoms: _479  and  _481
REMARK  190  A    between atoms: _481  and  _482
REMARK  191  A    between atoms: _481  and  _484
REMARK  192  A    between atoms: _484  and  _485
REMARK  193  A    between atoms: _485  and  _486
REMARK  194  A    between atoms: _488  and  _490
REMARK  195  A    between atoms: _490  and  _491
REMARK  196  A    between atoms: _490  and  _493
REMARK  197  A    between atoms: _493  and  _494
REMARK  198  A    between atoms: _500  and  _502
REMARK  199  A    between atoms: _502  and  _503
REMARK  200  A    between atoms: _502  and  _505
REMARK  201  A    between atoms: _505  and  _506
REMARK  202  A    between atoms: _510  and  _511
REMARK  203  A    between atoms: _516  and  _518
REMARK  204  A    between atoms: _518  and  _519
REMARK  205  A    between atoms: _522  and  _524
REMARK  206  A    between atoms: _524  and  _525
REMARK  207  A    between atoms: _524  and  _527
REMARK  208  A    between atoms: _527  and  _528
REMARK  209  A    between atoms: _531  and  _533
REMARK  210  A    between atoms: _533  and  _534
REMARK  211  A    between atoms: _533  and  _536
REMARK  212  A    between atoms: _536  and  _537
REMARK  213  A    between atoms: _539  and  _541
REMARK  214  A    between atoms: _541  and  _542
REMARK  215  A    between atoms: _541  and  _544
REMARK  216  A    between atoms: _544  and  _545
REMARK  217  A    between atoms: _547  and  _549
REMARK  218  A    between atoms: _549  and  _550
REMARK  219  A    between atoms: _549  and  _552
REMARK  220  A    between atoms: _552  and  _553
REMARK  221  A    between atoms: _558  and  _559
REMARK  222  A    between atoms: _561  and  _563
REMARK  223  A    between atoms: _563  and  _564
REMARK  224  A    between atoms: _563  and  _566
REMARK  225  A    between atoms: _566  and  _567
REMARK  226  A    between atoms: _572  and  _573
REMARK  227  A    between atoms: _575  and  _577
REMARK  228  A    between atoms: _577  and  _578
REMARK                            x       y       z     vdW  Elec       q    Type
REMARK                         _______ _______ _______ _____ _____    ______ ____
ROOT
ATOM      1  NE  ARG A   1      14.326  12.064 -11.470  0.00  0.00    -0.265 N 
ATOM      2  HE  ARG A   1      15.158  12.651 -11.257  0.00  0.00    +0.259 HD
ATOM      3  CZ  ARG A   1      13.473  12.512 -12.389  0.00  0.00    +0.342 C 
ATOM      4  NH2 ARG A   1      12.377  11.826 -12.700  0.00  0.00    -0.292 N 
ATOM      5 HH21 ARG A   1      12.175  10.924 -12.223  0.00  0.00    +0.255 HD
ATOM      6 HH22 ARG A   1      11.722  12.191 -13.420  0.00  0.00    +0.255 HD
ATOM      7  NH1 ARG A   1      13.721  13.666 -12.994  0.00  0.00    -0.292 N 
ATOM      8 HH11 ARG A   1      14.573  14.209 -12.749  0.00  0.00    +0.255 HD
ATOM      9 HH12 ARG A   1      13.063  14.028 -13.714  0.00  0.00    +0.255 HD
ENDROOT
BRANCH   1  10
ATOM     10  CD  ARG A   1      14.179  10.809 -10.740  0.00  0.00    +0.174 C 
BRANCH  10  11
ATOM     11  CG  ARG A   1      13.545  10.961  -9.369  0.00  0.00    +0.045 C 
BRANCH  11  12
ATOM     12  CB  ARG A   1      14.065  12.147  -8.640  0.00  0.00    +0.029 C 
BRANCH  12  13
ATOM     13  CA  ARG A   1      13.827  12.097  -7.133  0.00  0.00    +0.133 C 
BRANCH  13  14
ATOM     14  N   ARG A   1      12.388  12.087  -6.815  0.00  0.00    -0.239 NA
ATOM     15  H   ARG A   1      11.815  12.924  -7.044  0.00  0.00    +0.142 HD
ENDBRANCH  13  14
BRANCH  13  16
ATOM     16  C   ARG A   1      14.516  13.302  -6.532  0.00  0.00    +0.224 C 
ATOM     17  O   ARG A   1      13.986  14.412  -6.566  0.00  0.00    -0.287 OA
ENDBRANCH  13  16
ENDBRANCH  12  13
ENDBRANCH  11  12
ENDBRANCH  10  11
ENDBRANCH   1  10
TORSDOF 6
REMARK  Name = ../refined-set-2016/2byr/2byr_pocket.pdb
REMARK  228 active torsions:
REMARK  status: ('A' for Active; 'I' for Inactive)
REMARK    1  A    between atoms: _1  and  _3
REMARK    2  A    between atoms: _3  and  _4
REMARK    3  A    between atoms: _3  and  _6
REMARK    4  A    between atoms: _6  and  _7
REMARK    5  A    between atoms: _10  and  _12
REMARK    6  A    between atoms: _12  and  _13
REMARK    7  A    between atoms: _12  and  _15
REMARK    8  A    between atoms: _15  and  _16
REMARK    9  A    between atoms: _19  and  _21
REMARK   10  A    between atoms: _21  and  _22
REMARK   11  A    between atoms: _25  and  _27
REMARK   12  A    between atoms: _27  and  _28
REMARK   13  A    between atoms: _27  and  _30
REMARK   14  A    between atoms: _30  and  _31
REMARK   15  A    between atoms: _36  and  _37
REMARK   16  A    between atoms: _39  and  _41
REMARK   17  A    between atoms: _41  and  _42
REMARK   18  A    between atoms: _41  and  _44
REMARK   19  A    between atoms: _44  and  _45
REMARK   20  A    between atoms: _47  and  _49
REMARK   21  A    between atoms: _49  and  _50
REMARK   22  A    between atoms: _49  and  _52
REMARK   23  A    between atoms: _52  and  _53
REMARK   24  A    between atoms: _55  and  _57
REMARK   25  A    between atoms: _57  and  _58
REMARK   26  A    between atoms: _57  and  _60
REMARK   27  A    between atoms: _60  and  _61
REMARK   28  A    between atoms: _61  and  _62
REMARK   29  A    between atoms: _64  and  _66
REMARK   30  A    between atoms: _66  and  _67
REMARK   31  A    between atoms: _70  and  _72
REMARK   32  A    between atoms: _72  and  _73
REMARK   33  A    between atoms: _72  and  _75
REMARK   34  A    between atoms: _78  and  _80
REMARK   35  A    between atoms: _80  and  _81
REMARK   36  A    between atoms: _80  and  _83
REMARK   37  A    between atoms: _83  and  _84
REMARK   38  A    between atoms: _84  and  _85
REMARK   39  A    between atoms: _85  and  _86
REMARK   40  A    between atoms: _86  and  _87
REMARK   41  A    between atoms: _91  and  _93
REMARK   42  A    between atoms: _93  and  _94
REMARK   43  A    between atoms: _93  and  _96
REMARK   44  A    between atoms: _96  and  _97
REMARK   45  A    between atoms: _103  and  _105
REMARK   46  A    between atoms: _105  and  _106
REMARK   47  A    between atoms: _108  and  _110
REMARK   48  A    between atoms: _110  and  _111
REMARK   49  A    between atoms: _110  and  _113
REMARK   50  A    between atoms: _113  and  _114
REMARK   51  A    between atoms: _116  and  _118
REMARK   52  A    between atoms: _118  and  _119
REMARK   53  A    between atoms: _118  and  _121
REMARK   54  A    between atoms: _121  and  _122
REMARK   55  A    between atoms: _132  and  _134
REMARK   56  A    between atoms: _134  and  _135
REMARK   57  A    between atoms: _134  and  _137
REMARK   58  A    between atoms: _140  and  _142
REMARK   59  A    between atoms: _142  and  _143
REMARK   60  A    between atoms: _142  and  _145
REMARK   61  A    between atoms: _145  and  _146
REMARK   62  A    between atoms: _151  and  _152
REMARK   63  A    between atoms: _154  and  _156
REMARK   64  A    between atoms: _156  and  _157
REMARK   65  A    between atoms: _156  and  _159
REMARK   66  A    between atoms: _159  and  _160
REMARK   67  A    between atoms: _162  and  _164
REMARK   68  A    between atoms: _164  and  _165
REMARK   69  A    between atoms: _167  and  _169
REMARK   70  A    between atoms: _169  and  _170
REMARK   71  A    between atoms: _169  and  _172
REMARK   72  A    between atoms: _172  and  _173
REMARK   73  A    between atoms: _173  and  _174
REMARK   74  A    between atoms: _177  and  _179
REMARK   75  A    between atoms: _179  and  _180
REMARK   76  A    between atoms: _179  and  _182
REMARK   77  A    between atoms: _182  and  _183
REMARK   78  A    between atoms: _183  and  _184
REMARK   79  A    between atoms: _189  and  _191
REMARK   80  A    between atoms: _191  and  _192
REMARK   81  A    between atoms: _191  and  _194
REMARK   82  A    between atoms: _197  and  _199
REMARK   83  A    between atoms: _199  and  _200
REMARK   84  A    between atoms: _199  and  _202
REMARK   85  A    between atoms: _202  and  _203
REMARK   86  A    between atoms: _203  and  _204
REMARK   87  A    between atoms: _209  and  _211
REMARK   88  A    between atoms: _211  and  _212
REMARK   89  A    between atoms: _211  and  _214
REMARK   90  A    between atoms: _214  and  _215
REMARK   91  A    between atoms: _220  and  _222
REMARK   92  A    between atoms: _222  and  _223
REMARK   93  A    between atoms: _222  and  _225
REMARK   94  A    between atoms: _225  and  _226
REMARK   95  A    between atoms: _231  and  _232
REMARK   96  A    between atoms: _234  and  _236
REMARK   97  A    between atoms: _236  and  _237
REMARK   98  A    between atoms: _236  and  _239
REMARK   99  A    between atoms: _239  and  _240
REMARK  100  A    between atoms: _242  and  _244
REMARK  101  A    between atoms: _251  and  _252
REMARK  102  A    between atoms: _256  and  _258
REMARK  103  A    between atoms: _258  and  _259
REMARK  104  A    between atoms: _258  and  _261
REMARK  105  A    between atoms: _261  and  _262
REMARK  106  A    between atoms: _262  and  _263
REMARK  107  A    between atoms: _267  and  _268
REMARK  108  A    between atoms: _273  and  _275
REMARK  109  A    between atoms: _275  and  _276
REMARK  110  A    between atoms: _275  and  _278
REMARK  111  A    between atoms: _278  and  _279
REMARK  112  A    between atoms: _284  and  _285
REMARK  113  A    between atoms: _287  and  _289
REMARK  114  A    between atoms: _289  and  _290
REMARK  115  A    between atoms: _289  and  _292
REMARK  116  A    between atoms: _292  and  _293
REMARK  117  A    between atoms: _296  and  _298
REMARK  118  A    between atoms: _298  and  _299
REMARK  119  A    between atoms: _298  and  _301
REMARK  120  A    between atoms: _301  and  _302
REMARK  121  A    between atoms: _305  and  _307
REMARK  122  A    between atoms: _307  and  _308
REMARK  123  A    between atoms: _307  and  _310
REMARK  124  A    between atoms: _313  and  _315
REMARK  125  A    between atoms: _315  and  _316
REMARK  126  A    between atoms: _315  and  _318
REMARK  127  A    between atoms: _318  and  _319
REMARK  128  A    between atoms: _324  and  _326
REMARK  129  A    between atoms: _326  and  _327
REMARK  130  A    between atoms: _326  and  _329
REMARK  131  A    between atoms: _329  and  _330
REMARK  132  A    between atoms: _333  and  _335
REMARK  133  A    between atoms: _335  and  _336
REMARK  134  A    between atoms: _335  and  _338
REMARK  135  A    between atoms: _338  and  _339
REMARK  136  A    between atoms: _342  and  _344
REMARK  137  A    between atoms: _344  and  _345
REMARK  138  A    between atoms: _344  and  _347
REMARK  139  A    between atoms: _347  and  _348
REMARK  140  A    between atoms: _348  and  _349
REMARK  141  A    between atoms: _354  and  _356
REMARK  142  A    between atoms: _356  and  _357
REMARK  143  A    between atoms: _356  and  _359
REMARK  144  A    between atoms: _359  and  _360
REMARK  145  A    between atoms: _363  and  _365
REMARK  146  A    between atoms: _365  and  _366
REMARK  147  A    between atoms: _365  and  _368
REMARK  148  A    between atoms: _371  and  _373
REMARK  149  A    between atoms: _373  and  _374
REMARK  150  A    between atoms: _373  and  _376
REMARK  151  A    between atoms: _376  and  _377
REMARK  152  A    between atoms: _382  and  _383
REMARK  153  A    between atoms: _385  and  _387
REMARK  154  A    between atoms: _387  and  _388
REMARK  155  A    between atoms: _387  and  _390
REMARK  156  A    between atoms: _390  and  _391
REMARK  157  A    between atoms: _391  and  _392
REMARK  158  A    between atoms: _395  and  _397
REMARK  159  A    between atoms: _397  and  _398
REMARK  160  A    between atoms: _397  and  _400
REMARK  161  A    between atoms: _400  and  _401
REMARK  162  A    between atoms: _401  and  _402
REMARK  163  A    between atoms: _407  and  _409
REMARK  164  A    between atoms: _409  and  _410
REMARK  165  A    between atoms: _409  and  _412
REMARK  166  A    between atoms: _412  and  _413
REMARK  167  A    between atoms: _413  and  _414
REMARK  168  A    between atoms: _414  and  _415
REMARK  169  A    between atoms: _424  and  _426
REMARK  170  A    between atoms: _426  and  _427
REMARK  171  A    between atoms: _426  and  _429
REMARK  172  A    between atoms: _429  and  _430
REMARK  173  A    between atoms: _430  and  _431
REMARK  174  A    between atoms: _431  and  _432
REMARK  175  A    between atoms: _441  and  _443
REMARK  176  A    between atoms: _443  and  _444
REMARK  177  A    between atoms: _443  and  _446
REMARK  178  A    between atoms: _446  and  _447
REMARK  179  A    between atoms: _450  and  _451
REMARK  180  A    between atoms: _456  and  _458
REMARK  181  A    between atoms: _458  and  _459
REMARK  182  A    between atoms: _458  and  _461
REMARK  183  A    between atoms: _461  and  _462
REMARK  184  A    between atoms: _465  and  _467
REMARK  185  A    between atoms: _467  and  _468
REMARK  186  A    between atoms: _471  and  _473
REMARK  187  A    between atoms: _473  and  _474
REMARK  188  A    between atoms: _473  and  _476
REMARK  189  A    between atoms: _479  and  _481
REMARK  190  A    between atoms: _481  and  _482
REMARK  191  A    between atoms: _481  and  _484
REMARK  192  A    between atoms: _484  and  _485
REMARK  193  A    between atoms: _485  and  _486
REMARK  194  A    between atoms: _488  and  _490
REMARK  195  A    between atoms: _490  and  _491
REMARK  196  A    between atoms: _490  and  _493
REMARK  197  A    between atoms: _493  and  _494
REMARK  198  A    between atoms: _500  and  _502
REMARK  199  A    between atoms: _502  and  _503
REMARK  200  A    between atoms: _502  and  _505
REMARK  201  A    between atoms: _505  and  _506
REMARK  202  A    between atoms: _510  and  _511
REMARK  203  A    between atoms: _516  and  _518
REMARK  204  A    between atoms: _518  and  _519
REMARK  205  A    between atoms: _522  and  _524
REMARK  206  A    between atoms: _524  and  _525
REMARK  207  A    between atoms: _524  and  _527
REMARK  208  A    between atoms: _527  and  _528
REMARK  209  A    between atoms: _531  and  _533
REMARK  210  A    between atoms: _533  and  _534
REMARK  211  A    between atoms: _533  and  _536
REMARK  212  A    between atoms: _536  and  _537
REMARK  213  A    between atoms: _539  and  _541
REMARK  214  A    between atoms: _541  and  _542
REMARK  215  A    between atoms: _541  and  _544
REMARK  216  A    between atoms: _544  and  _545
REMARK  217  A    between atoms: _547  and  _549
REMARK  218  A    between atoms: _549  and  _550
REMARK  219  A    between atoms: _549  and  _552
REMARK  220  A    between atoms: _552  and  _553
REMARK  221  A    between atoms: _558  and  _559
REMARK  222  A    between atoms: _561  and  _563
REMARK  223  A    between atoms: _563  and  _564
REMARK  224  A    between atoms: _563  and  _566
REMARK  225  A    between atoms: _566  and  _567
REMARK  226  A    between atoms: _572  and  _573
REMARK  227  A    between atoms: _575  and  _577
REMARK  228  A    between atoms: _577  and  _578
REMARK                            x       y       z     vdW  Elec       q    Type
REMARK                         _______ _______ _______ _____ _____    ______ ____
ROOT
ATOM      1  NE  ARG A   1      17.406  -1.823  -7.470  0.00  0.00    -0.265 N 
ATOM      2  HE  ARG A   1      16.378  -1.964  -7.396  0.00  0.00    +0.259 HD
ATOM      3  CZ  ARG A   1      17.923  -1.662  -8.688  0.00  0.00    +0.342 C 
ATOM      4  NH2 ARG A   1      19.230  -1.472  -8.857  0.00  0.00    -0.292 N 
ATOM      5 HH21 ARG A   1      19.863  -1.448  -8.032  0.00  0.00    +0.255 HD
ATOM      6 HH22 ARG A   1      19.618  -1.348  -9.814  0.00  0.00    +0.255 HD
ATOM      7  NH1 ARG A   1      17.125  -1.671  -9.752  0.00  0.00    -0.292 N 
ATOM      8 HH11 ARG A   1      16.100  -1.803  -9.632  0.00  0.00    +0.255 HD
ATOM      9 HH12 ARG A   1      17.526  -1.546 -10.704  0.00  0.00    +0.255 HD
ENDROOT
BRANCH   1  10
ATOM     10  CD  ARG A   1      18.180  -1.815  -6.234  0.00  0.00    +0.174 C 
BRANCH  10  11
ATOM     11  CG  ARG A   1      17.277  -1.698  -5.039  0.00  0.00    +0.045 C 
BRANCH  11  12
ATOM     12  CB  ARG A   1      18.034  -1.781  -3.738  0.00  0.00    +0.029 C 
BRANCH  12  13
ATOM     13  CA  ARG A   1      18.941  -0.579  -3.459  0.00  0.00    +0.133 C 
BRANCH  13  14
ATOM     14  N   ARG A   1      20.213  -0.718  -4.141  0.00  0.00    -0.239 NA
ATOM     15  H   ARG A   1      20.636  -1.664  -4.233  0.00  0.00    +0.142 HD
ENDBRANCH  13  14
BRANCH  13  16
ATOM     16  C   ARG A   1      19.220  -0.468  -1.978  0.00  0.00    +0.224 C 
ATOM     17  O   ARG A   1      20.129  -1.095  -1.467  0.00  0.00    -0.287 OA
ENDBRANCH  13  16
ENDBRANCH  12  13
ENDBRANCH  11  12
ENDBRANCH  10  11
ENDBRANCH   1  10
TORSDOF 6
REMARK  Name = ../refined-set-2016/2byr/2byr_pocket.pdb
REMARK  228 active torsions:
REMARK  status: ('A' for Active; 'I' for Inactive)
REMARK    1  A    between atoms: _1  and  _3
REMARK    2  A    between atoms: _3  and  _4
REMARK    3  A    between atoms: _3  and  _6
REMARK    4  A    between atoms: _6  and  _7
REMARK    5  A    between atoms: _10  and  _12
REMARK    6  A    between atoms: _12  and  _13
REMARK    7  A    between atoms: _12  and  _15
REMARK    8  A    between atoms: _15  and  _16
REMARK    9  A    between atoms: _19  and  _21
REMARK   10  A    between atoms: _21  and  _22
REMARK   11  A    between atoms: _25  and  _27
REMARK   12  A    between atoms: _27  and  _28
REMARK   13  A    between atoms: _27  and  _30
REMARK   14  A    between atoms: _30  and  _31
REMARK   15  A    between atoms: _36  and  _37
REMARK   16  A    between atoms: _39  and  _41
REMARK   17  A    between atoms: _41  and  _42
REMARK   18  A    between atoms: _41  and  _44
REMARK   19  A    between atoms: _44  and  _45
REMARK   20  A    between atoms: _47  and  _49
REMARK   21  A    between atoms: _49  and  _50
REMARK   22  A    between atoms: _49  and  _52
REMARK   23  A    between atoms: _52  and  _53
REMARK   24  A    between atoms: _55  and  _57
REMARK   25  A    between atoms: _57  and  _58
REMARK   26  A    between atoms: _57  and  _60
REMARK   27  A    between atoms: _60  and  _61
REMARK   28  A    between atoms: _61  and  _62
REMARK   29  A    between atoms: _64  and  _66
REMARK   30  A    between atoms: _66  and  _67
REMARK   31  A    between atoms: _70  and  _72
REMARK   32  A    between atoms: _72  and  _73
REMARK   33  A    between atoms: _72  and  _75
REMARK   34  A    between atoms: _78  and  _80
REMARK   35  A    between atoms: _80  and  _81
REMARK   36  A    between atoms: _80  and  _83
REMARK   37  A    between atoms: _83  and  _84
REMARK   38  A    between atoms: _84  and  _85
REMARK   39  A    between atoms: _85  and  _86
REMARK   40  A    between atoms: _86  and  _87
REMARK   41  A    between atoms: _91  and  _93
REMARK   42  A    between atoms: _93  and  _94
REMARK   43  A    between atoms: _93  and  _96
REMARK   44  A    between atoms: _96  and  _97
REMARK   45  A    between atoms: _103  and  _105
REMARK   46  A    between atoms: _105  and  _106
REMARK   47  A    between atoms: _108  and  _110
REMARK   48  A    between atoms: _110  and  _111
REMARK   49  A    between atoms: _110  and  _113
REMARK   50  A    between atoms: _113  and  _114
REMARK   51  A    between atoms: _116  and  _118
REMARK   52  A    between atoms: _118  and  _119
REMARK   53  A    between atoms: _118  and  _121
REMARK   54  A    between atoms: _121  and  _122
REMARK   55  A    between atoms: _132  and  _134
REMARK   56  A    between atoms: _134  and  _135
REMARK   57  A    between atoms: _134  and  _137
REMARK   58  A    between atoms: _140  and  _142
REMARK   59  A    between atoms: _142  and  _143
REMARK   60  A    between atoms: _142  and  _145
REMARK   61  A    between atoms: _145  and  _146
REMARK   62  A    between atoms: _151  and  _152
REMARK   63  A    between atoms: _154  and  _156
REMARK   64  A    between atoms: _156  and  _157
REMARK   65  A    between atoms: _156  and  _159
REMARK   66  A    between atoms: _159  and  _160
REMARK   67  A    between atoms: _162  and  _164
REMARK   68  A    between atoms: _164  and  _165
REMARK   69  A    between atoms: _167  and  _169
REMARK   70  A    between atoms: _169  and  _170
REMARK   71  A    between atoms: _169  and  _172
REMARK   72  A    between atoms: _172  and  _173
REMARK   73  A    between atoms: _173  and  _174
REMARK   74  A    between atoms: _177  and  _179
REMARK   75  A    between atoms: _179  and  _180
REMARK   76  A    between atoms: _179  and  _182
REMARK   77  A    between atoms: _182  and  _183
REMARK   78  A    between atoms: _183  and  _184
REMARK   79  A    between atoms: _189  and  _191
REMARK   80  A    between atoms: _191  and  _192
REMARK   81  A    between atoms: _191  and  _194
REMARK   82  A    between atoms: _197  and  _199
REMARK   83  A    between atoms: _199  and  _200
REMARK   84  A    between atoms: _199  and  _202
REMARK   85  A    between atoms: _202  and  _203
REMARK   86  A    between atoms: _203  and  _204
REMARK   87  A    between atoms: _209  and  _211
REMARK   88  A    between atoms: _211  and  _212
REMARK   89  A    between atoms: _211  and  _214
REMARK   90  A    between atoms: _214  and  _215
REMARK   91  A    between atoms: _220  and  _222
REMARK   92  A    between atoms: _222  and  _223
REMARK   93  A    between atoms: _222  and  _225
REMARK   94  A    between atoms: _225  and  _226
REMARK   95  A    between atoms: _231  and  _232
REMARK   96  A    between atoms: _234  and  _236
REMARK   97  A    between atoms: _236  and  _237
REMARK   98  A    between atoms: _236  and  _239
REMARK   99  A    between atoms: _239  and  _240
REMARK  100  A    between atoms: _242  and  _244
REMARK  101  A    between atoms: _251  and  _252
REMARK  102  A    between atoms: _256  and  _258
REMARK  103  A    between atoms: _258  and  _259
REMARK  104  A    between atoms: _258  and  _261
REMARK  105  A    between atoms: _261  and  _262
REMARK  106  A    between atoms: _262  and  _263
REMARK  107  A    between atoms: _267  and  _268
REMARK  108  A    between atoms: _273  and  _275
REMARK  109  A    between atoms: _275  and  _276
REMARK  110  A    between atoms: _275  and  _278
REMARK  111  A    between atoms: _278  and  _279
REMARK  112  A    between atoms: _284  and  _285
REMARK  113  A    between atoms: _287  and  _289
REMARK  114  A    between atoms: _289  and  _290
REMARK  115  A    between atoms: _289  and  _292
REMARK  116  A    between atoms: _292  and  _293
REMARK  117  A    between atoms: _296  and  _298
REMARK  118  A    between atoms: _298  and  _299
REMARK  119  A    between atoms: _298  and  _301
REMARK  120  A    between atoms: _301  and  _302
REMARK  121  A    between atoms: _305  and  _307
REMARK  122  A    between atoms: _307  and  _308
REMARK  123  A    between atoms: _307  and  _310
REMARK  124  A    between atoms: _313  and  _315
REMARK  125  A    between atoms: _315  and  _316
REMARK  126  A    between atoms: _315  and  _318
REMARK  127  A    between atoms: _318  and  _319
REMARK  128  A    between atoms: _324  and  _326
REMARK  129  A    between atoms: _326  and  _327
REMARK  130  A    between atoms: _326  and  _329
REMARK  131  A    between atoms: _329  and  _330
REMARK  132  A    between atoms: _333  and  _335
REMARK  133  A    between atoms: _335  and  _336
REMARK  134  A    between atoms: _335  and  _338
REMARK  135  A    between atoms: _338  and  _339
REMARK  136  A    between atoms: _342  and  _344
REMARK  137  A    between atoms: _344  and  _345
REMARK  138  A    between atoms: _344  and  _347
REMARK  139  A    between atoms: _347  and  _348
REMARK  140  A    between atoms: _348  and  _349
REMARK  141  A    between atoms: _354  and  _356
REMARK  142  A    between atoms: _356  and  _357
REMARK  143  A    between atoms: _356  and  _359
REMARK  144  A    between atoms: _359  and  _360
REMARK  145  A    between atoms: _363  and  _365
REMARK  146  A    between atoms: _365  and  _366
REMARK  147  A    between atoms: _365  and  _368
REMARK  148  A    between atoms: _371  and  _373
REMARK  149  A    between atoms: _373  and  _374
REMARK  150  A    between atoms: _373  and  _376
REMARK  151  A    between atoms: _376  and  _377
REMARK  152  A    between atoms: _382  and  _383
REMARK  153  A    between atoms: _385  and  _387
REMARK  154  A    between atoms: _387  and  _388
REMARK  155  A    between atoms: _387  and  _390
REMARK  156  A    between atoms: _390  and  _391
REMARK  157  A    between atoms: _391  and  _392
REMARK  158  A    between atoms: _395  and  _397
REMARK  159  A    between atoms: _397  and  _398
REMARK  160  A    between atoms: _397  and  _400
REMARK  161  A    between atoms: _400  and  _401
REMARK  162  A    between atoms: _401  and  _402
REMARK  163  A    between atoms: _407  and  _409
REMARK  164  A    between atoms: _409  and  _410
REMARK  165  A    between atoms: _409  and  _412
REMARK  166  A    between atoms: _412  and  _413
REMARK  167  A    between atoms: _413  and  _414
REMARK  168  A    between atoms: _414  and  _415
REMARK  169  A    between atoms: _424  and  _426
REMARK  170  A    between atoms: _426  and  _427
REMARK  171  A    between atoms: _426  and  _429
REMARK  172  A    between atoms: _429  and  _430
REMARK  173  A    between atoms: _430  and  _431
REMARK  174  A    between atoms: _431  and  _432
REMARK  175  A    between atoms: _441  and  _443
REMARK  176  A    between atoms: _443  and  _444
REMARK  177  A    between atoms: _443  and  _446
REMARK  178  A    between atoms: _446  and  _447
REMARK  179  A    between atoms: _450  and  _451
REMARK  180  A    between atoms: _456  and  _458
REMARK  181  A    between atoms: _458  and  _459
REMARK  182  A    between atoms: _458  and  _461
REMARK  183  A    between atoms: _461  and  _462
REMARK  184  A    between atoms: _465  and  _467
REMARK  185  A    between atoms: _467  and  _468
REMARK  186  A    between atoms: _471  and  _473
REMARK  187  A    between atoms: _473  and  _474
REMARK  188  A    between atoms: _473  and  _476
REMARK  189  A    between atoms: _479  and  _481
REMARK  190  A    between atoms: _481  and  _482
REMARK  191  A    between atoms: _481  and  _484
REMARK  192  A    between atoms: _484  and  _485
REMARK  193  A    between atoms: _485  and  _486
REMARK  194  A    between atoms: _488  and  _490
REMARK  195  A    between atoms: _490  and  _491
REMARK  196  A    between atoms: _490  and  _493
REMARK  197  A    between atoms: _493  and  _494
REMARK  198  A    between atoms: _500  and  _502
REMARK  199  A    between atoms: _502  and  _503
REMARK  200  A    between atoms: _502  and  _505
REMARK  201  A    between atoms: _505  and  _506
REMARK  202  A    between atoms: _510  and  _511
REMARK  203  A    between atoms: _516  and  _518
REMARK  204  A    between atoms: _518  and  _519
REMARK  205  A    between atoms: _522  and  _524
REMARK  206  A    between atoms: _524  and  _525
REMARK  207  A    between atoms: _524  and  _527
REMARK  208  A    between atoms: _527  and  _528
REMARK  209  A    between atoms: _531  and  _533
REMARK  210  A    between atoms: _533  and  _534
REMARK  211  A    between atoms: _533  and  _536
REMARK  212  A    between atoms: _536  and  _537
REMARK  213  A    between atoms: _539  and  _541
REMARK  214  A    between atoms: _541  and  _542
REMARK  215  A    between atoms: _541  and  _544
REMARK  216  A    between atoms: _544  and  _545
REMARK  217  A    between atoms: _547  and  _549
REMARK  218  A    between atoms: _549  and  _550
REMARK  219  A    between atoms: _549  and  _552
REMARK  220  A    between atoms: _552  and  _553
REMARK  221  A    between atoms: _558  and  _559
REMARK  222  A    between atoms: _561  and  _563
REMARK  223  A    between atoms: _563  and  _564
REMARK  224  A    between atoms: _563  and  _566
REMARK  225  A    between atoms: _566  and  _567
REMARK  226  A    between atoms: _572  and  _573
REMARK  227  A    between atoms: _575  and  _577
REMARK  228  A    between atoms: _577  and  _578
REMARK                            x       y       z     vdW  Elec       q    Type
REMARK                         _______ _______ _______ _____ _____    ______ ____
ROOT
ATOM      1  C   SER A   1       5.830  -0.862  -0.340  0.00  0.00    +0.244 C 
ATOM      2  O   SER A   1       5.837  -0.119   0.625  0.00  0.00    -0.273 OA
ATOM      3  N   PRO A   2       6.786  -1.775  -0.547  0.00  0.00    -0.273 N 
ATOM      4  CA  PRO A   2       7.971  -1.780   0.303  0.00  0.00    +0.140 C 
ATOM      5  CB  PRO A   2       8.811  -2.931  -0.265  0.00  0.00    +0.030 C 
ATOM      6  CG  PRO A   2       8.251  -3.238  -1.566  0.00  0.00    +0.024 C 
ATOM      7  CD  PRO A   2       6.818  -2.867  -1.530  0.00  0.00    +0.094 C 
ENDROOT
BRANCH   4   8
ATOM      8  C   PRO A   2       8.706  -0.444   0.236  0.00  0.00    +0.227 C 
ATOM      9  O   PRO A   2       8.646   0.219  -0.779  0.00  0.00    -0.286 OA
ENDBRANCH   4   8
BRANCH   1  10
ATOM     10  CA  SER A   1       4.702  -0.797  -1.353  0.00  0.00    +0.175 C 
BRANCH  10  11
ATOM     11  N   SER A   1       3.517  -0.206  -0.760  0.00  0.00    -0.236 NA
ATOM     12  H   SER A   1       3.558   0.772  -0.410  0.00  0.00    +0.142 HD
ENDBRANCH  10  11
BRANCH  10  13
ATOM     13  CB  SER A   1       5.147   0.038  -2.539  0.00  0.00    +0.163 C 
BRANCH  13  14
ATOM     14  OG  SER A   1       5.324   1.382  -2.139  0.00  0.00    -0.380 OA
ATOM     15  H   SER A   1       6.013   1.426  -1.430  0.00  0.00    +0.211 HD
ENDBRANCH  13  14
ENDBRANCH  10  13
ENDBRANCH   1  10
TORSDOF 5
REMARK  Name = ../refined-set-2016/2byr/2byr_pocket.pdb
REMARK  228 active torsions:
REMARK  status: ('A' for Active; 'I' for Inactive)
REMARK    1  A    between atoms: _1  and  _3
REMARK    2  A    between atoms: _3  and  _4
REMARK    3  A    between atoms: _3  and  _6
REMARK    4  A    between atoms: _6  and  _7
REMARK    5  A    between atoms: _10  and  _12
REMARK    6  A    between atoms: _12  and  _13
REMARK    7  A    between atoms: _12  and  _15
REMARK    8  A    between atoms: _15  and  _16
REMARK    9  A    between atoms: _19  and  _21
REMARK   10  A    between atoms: _21  and  _22
REMARK   11  A    between atoms: _25  and  _27
REMARK   12  A    between atoms: _27  and  _28
REMARK   13  A    between atoms: _27  and  _30
REMARK   14  A    between atoms: _30  and  _31
REMARK   15  A    between atoms: _36  and  _37
REMARK   16  A    between atoms: _39  and  _41
REMARK   17  A    between atoms: _41  and  _42
REMARK   18  A    between atoms: _41  and  _44
REMARK   19  A    between atoms: _44  and  _45
REMARK   20  A    between atoms: _47  and  _49
REMARK   21  A    between atoms: _49  and  _50
REMARK   22  A    between atoms: _49  and  _52
REMARK   23  A    between atoms: _52  and  _53
REMARK   24  A    between atoms: _55  and  _57
REMARK   25  A    between atoms: _57  and  _58
REMARK   26  A    between atoms: _57  and  _60
REMARK   27  A    between atoms: _60  and  _61
REMARK   28  A    between atoms: _61  and  _62
REMARK   29  A    between atoms: _64  and  _66
REMARK   30  A    between atoms: _66  and  _67
REMARK   31  A    between atoms: _70  and  _72
REMARK   32  A    between atoms: _72  and  _73
REMARK   33  A    between atoms: _72  and  _75
REMARK   34  A    between atoms: _78  and  _80
REMARK   35  A    between atoms: _80  and  _81
REMARK   36  A    between atoms: _80  and  _83
REMARK   37  A    between atoms: _83  and  _84
REMARK   38  A    between atoms: _84  and  _85
REMARK   39  A    between atoms: _85  and  _86
REMARK   40  A    between atoms: _86  and  _87
REMARK   41  A    between atoms: _91  and  _93
REMARK   42  A    between atoms: _93  and  _94
REMARK   43  A    between atoms: _93  and  _96
REMARK   44  A    between atoms: _96  and  _97
REMARK   45  A    between atoms: _103  and  _105
REMARK   46  A    between atoms: _105  and  _106
REMARK   47  A    between atoms: _108  and  _110
REMARK   48  A    between atoms: _110  and  _111
REMARK   49  A    between atoms: _110  and  _113
REMARK   50  A    between atoms: _113  and  _114
REMARK   51  A    between atoms: _116  and  _118
REMARK   52  A    between atoms: _118  and  _119
REMARK   53  A    between atoms: _118  and  _121
REMARK   54  A    between atoms: _121  and  _122
REMARK   55  A    between atoms: _132  and  _134
REMARK   56  A    between atoms: _134  and  _135
REMARK   57  A    between atoms: _134  and  _137
REMARK   58  A    between atoms: _140  and  _142
REMARK   59  A    between atoms: _142  and  _143
REMARK   60  A    between atoms: _142  and  _145
REMARK   61  A    between atoms: _145  and  _146
REMARK   62  A    between atoms: _151  and  _152
REMARK   63  A    between atoms: _154  and  _156
REMARK   64  A    between atoms: _156  and  _157
REMARK   65  A    between atoms: _156  and  _159
REMARK   66  A    between atoms: _159  and  _160
REMARK   67  A    between atoms: _162  and  _164
REMARK   68  A    between atoms: _164  and  _165
REMARK   69  A    between atoms: _167  and  _169
REMARK   70  A    between atoms: _169  and  _170
REMARK   71  A    between atoms: _169  and  _172
REMARK   72  A    between atoms: _172  and  _173
REMARK   73  A    between atoms: _173  and  _174
REMARK   74  A    between atoms: _177  and  _179
REMARK   75  A    between atoms: _179  and  _180
REMARK   76  A    between atoms: _179  and  _182
REMARK   77  A    between atoms: _182  and  _183
REMARK   78  A    between atoms: _183  and  _184
REMARK   79  A    between atoms: _189  and  _191
REMARK   80  A    between atoms: _191  and  _192
REMARK   81  A    between atoms: _191  and  _194
REMARK   82  A    between atoms: _197  and  _199
REMARK   83  A    between atoms: _199  and  _200
REMARK   84  A    between atoms: _199  and  _202
REMARK   85  A    between atoms: _202  and  _203
REMARK   86  A    between atoms: _203  and  _204
REMARK   87  A    between atoms: _209  and  _211
REMARK   88  A    between atoms: _211  and  _212
REMARK   89  A    between atoms: _211  and  _214
REMARK   90  A    between atoms: _214  and  _215
REMARK   91  A    between atoms: _220  and  _222
REMARK   92  A    between atoms: _222  and  _223
REMARK   93  A    between atoms: _222  and  _225
REMARK   94  A    between atoms: _225  and  _226
REMARK   95  A    between atoms: _231  and  _232
REMARK   96  A    between atoms: _234  and  _236
REMARK   97  A    between atoms: _236  and  _237
REMARK   98  A    between atoms: _236  and  _239
REMARK   99  A    between atoms: _239  and  _240
REMARK  100  A    between atoms: _242  and  _244
REMARK  101  A    between atoms: _251  and  _252
REMARK  102  A    between atoms: _256  and  _258
REMARK  103  A    between atoms: _258  and  _259
REMARK  104  A    between atoms: _258  and  _261
REMARK  105  A    between atoms: _261  and  _262
REMARK  106  A    between atoms: _262  and  _263
REMARK  107  A    between atoms: _267  and  _268
REMARK  108  A    between atoms: _273  and  _275
REMARK  109  A    between atoms: _275  and  _276
REMARK  110  A    between atoms: _275  and  _278
REMARK  111  A    between atoms: _278  and  _279
REMARK  112  A    between atoms: _284  and  _285
REMARK  113  A    between atoms: _287  and  _289
REMARK  114  A    between atoms: _289  and  _290
REMARK  115  A    between atoms: _289  and  _292
REMARK  116  A    between atoms: _292  and  _293
REMARK  117  A    between atoms: _296  and  _298
REMARK  118  A    between atoms: _298  and  _299
REMARK  119  A    between atoms: _298  and  _301
REMARK  120  A    between atoms: _301  and  _302
REMARK  121  A    between atoms: _305  and  _307
REMARK  122  A    between atoms: _307  and  _308
REMARK  123  A    between atoms: _307  and  _310
REMARK  124  A    between atoms: _313  and  _315
REMARK  125  A    between atoms: _315  and  _316
REMARK  126  A    between atoms: _315  and  _318
REMARK  127  A    between atoms: _318  and  _319
REMARK  128  A    between atoms: _324  and  _326
REMARK  129  A    between atoms: _326  and  _327
REMARK  130  A    between atoms: _326  and  _329
REMARK  131  A    between atoms: _329  and  _330
REMARK  132  A    between atoms: _333  and  _335
REMARK  133  A    between atoms: _335  and  _336
REMARK  134  A    between atoms: _335  and  _338
REMARK  135  A    between atoms: _338  and  _339
REMARK  136  A    between atoms: _342  and  _344
REMARK  137  A    between atoms: _344  and  _345
REMARK  138  A    between atoms: _344  and  _347
REMARK  139  A    between atoms: _347  and  _348
REMARK  140  A    between atoms: _348  and  _349
REMARK  141  A    between atoms: _354  and  _356
REMARK  142  A    between atoms: _356  and  _357
REMARK  143  A    between atoms: _356  and  _359
REMARK  144  A    between atoms: _359  and  _360
REMARK  145  A    between atoms: _363  and  _365
REMARK  146  A    between atoms: _365  and  _366
REMARK  147  A    between atoms: _365  and  _368
REMARK  148  A    between atoms: _371  and  _373
REMARK  149  A    between atoms: _373  and  _374
REMARK  150  A    between atoms: _373  and  _376
REMARK  151  A    between atoms: _376  and  _377
REMARK  152  A    between atoms: _382  and  _383
REMARK  153  A    between atoms: _385  and  _387
REMARK  154  A    between atoms: _387  and  _388
REMARK  155  A    between atoms: _387  and  _390
REMARK  156  A    between atoms: _390  and  _391
REMARK  157  A    between atoms: _391  and  _392
REMARK  158  A    between atoms: _395  and  _397
REMARK  159  A    between atoms: _397  and  _398
REMARK  160  A    between atoms: _397  and  _400
REMARK  161  A    between atoms: _400  and  _401
REMARK  162  A    between atoms: _401  and  _402
REMARK  163  A    between atoms: _407  and  _409
REMARK  164  A    between atoms: _409  and  _410
REMARK  165  A    between atoms: _409  and  _412
REMARK  166  A    between atoms: _412  and  _413
REMARK  167  A    between atoms: _413  and  _414
REMARK  168  A    between atoms: _414  and  _415
REMARK  169  A    between atoms: _424  and  _426
REMARK  170  A    between atoms: _426  and  _427
REMARK  171  A    between atoms: _426  and  _429
REMARK  172  A    between atoms: _429  and  _430
REMARK  173  A    between atoms: _430  and  _431
REMARK  174  A    between atoms: _431  and  _432
REMARK  175  A    between atoms: _441  and  _443
REMARK  176  A    between atoms: _443  and  _444
REMARK  177  A    between atoms: _443  and  _446
REMARK  178  A    between atoms: _446  and  _447
REMARK  179  A    between atoms: _450  and  _451
REMARK  180  A    between atoms: _456  and  _458
REMARK  181  A    between atoms: _458  and  _459
REMARK  182  A    between atoms: _458  and  _461
REMARK  183  A    between atoms: _461  and  _462
REMARK  184  A    between atoms: _465  and  _467
REMARK  185  A    between atoms: _467  and  _468
REMARK  186  A    between atoms: _471  and  _473
REMARK  187  A    between atoms: _473  and  _474
REMARK  188  A    between atoms: _473  and  _476
REMARK  189  A    between atoms: _479  and  _481
REMARK  190  A    between atoms: _481  and  _482
REMARK  191  A    between atoms: _481  and  _484
REMARK  192  A    between atoms: _484  and  _485
REMARK  193  A    between atoms: _485  and  _486
REMARK  194  A    between atoms: _488  and  _490
REMARK  195  A    between atoms: _490  and  _491
REMARK  196  A    between atoms: _490  and  _493
REMARK  197  A    between atoms: _493  and  _494
REMARK  198  A    between atoms: _500  and  _502
REMARK  199  A    between atoms: _502  and  _503
REMARK  200  A    between atoms: _502  and  _505
REMARK  201  A    between atoms: _505  and  _506
REMARK  202  A    between atoms: _510  and  _511
REMARK  203  A    between atoms: _516  and  _518
REMARK  204  A    between atoms: _518  and  _519
REMARK  205  A    between atoms: _522  and  _524
REMARK  206  A    between atoms: _524  and  _525
REMARK  207  A    between atoms: _524  and  _527
REMARK  208  A    between atoms: _527  and  _528
REMARK  209  A    between atoms: _531  and  _533
REMARK  210  A    between atoms: _533  and  _534
REMARK  211  A    between atoms: _533  and  _536
REMARK  212  A    between atoms: _536  and  _537
REMARK  213  A    between atoms: _539  and  _541
REMARK  214  A    between atoms: _541  and  _542
REMARK  215  A    between atoms: _541  and  _544
REMARK  216  A    between atoms: _544  and  _545
REMARK  217  A    between atoms: _547  and  _549
REMARK  218  A    between atoms: _549  and  _550
REMARK  219  A    between atoms: _549  and  _552
REMARK  220  A    between atoms: _552  and  _553
REMARK  221  A    between atoms: _558  and  _559
REMARK  222  A    between atoms: _561  and  _563
REMARK  223  A    between atoms: _563  and  _564
REMARK  224  A    between atoms: _563  and  _566
REMARK  225  A    between atoms: _566  and  _567
REMARK  226  A    between atoms: _572  and  _573
REMARK  227  A    between atoms: _575  and  _577
REMARK  228  A    between atoms: _577  and  _578
REMARK                            x       y       z     vdW  Elec       q    Type
REMARK                         _______ _______ _______ _____ _____    ______ ____
ROOT
ATOM      1  CA  ALA A   2      14.972   3.499  -2.686  0.00  0.00    +0.149 C 
ATOM      2  CB  ALA A   2      15.346   4.813  -2.046  0.00  0.00    +0.031 C 
ENDROOT
BRANCH   1   4
ATOM      3  C   ILE A   1      13.380   1.943  -1.727  0.00  0.00    +0.238 C 
ATOM      4  N   ALA A   2      14.563   2.543  -1.673  0.00  0.00    -0.297 N 
ATOM      5  H   ALA A   2      15.210   2.324  -0.889  0.00  0.00    +0.150 HD
ATOM      6  O   ILE A   1      12.559   2.159  -2.609  0.00  0.00    -0.274 OA
BRANCH   3   7
ATOM      7  CA  ILE A   1      13.073   0.955  -0.625  0.00  0.00    +0.145 C 
BRANCH   7   8
ATOM      8  N   ILE A   1      11.743   1.237  -0.132  0.00  0.00    -0.238 NA
ATOM      9  H   ILE A   1      10.997   1.469  -0.818  0.00  0.00    +0.142 HD
ENDBRANCH   7   8
BRANCH   7  10
ATOM     10  CB  ILE A   1      13.165  -0.479  -1.175  0.00  0.00    +0.025 C 
ATOM     11  CG2 ILE A   1      14.577  -0.750  -1.723  0.00  0.00    +0.002 C 
BRANCH  10  12
ATOM     12  CG1 ILE A   1      12.814  -1.480  -0.074  0.00  0.00    +0.002 C 
ATOM     13  CD1 ILE A   1      12.735  -2.924  -0.517  0.00  0.00    +0.000 C 
ENDBRANCH  10  12
ENDBRANCH   7  10
ENDBRANCH   3   7
ENDBRANCH   1   4
BRANCH   1  14
ATOM     14  C   ALA A   2      16.146   2.936  -3.449  0.00  0.00    +0.241 C 
ATOM     15  O   ALA A   2      16.785   1.998  -2.998  0.00  0.00    -0.273 OA
ATOM     16  N   VAL A   3      16.401   3.519  -4.612  0.00  0.00    -0.298 N 
ATOM     17  H   VAL A   3      15.750   4.261  -4.939  0.00  0.00    +0.150 HD
BRANCH  16  18
ATOM     18  CA  VAL A   3      17.522   3.189  -5.450  0.00  0.00    +0.137 C 
BRANCH  18  19
ATOM     19  CB  VAL A   3      17.068   2.875  -6.896  0.00  0.00    +0.026 C 
ATOM     20  CG2 VAL A   3      16.174   1.651  -6.928  0.00  0.00    +0.002 C 
ATOM     21  CG1 VAL A   3      18.268   2.664  -7.807  0.00  0.00    +0.002 C 
ENDBRANCH  18  19
BRANCH  18  22
ATOM     22  C   VAL A   3      18.421   4.412  -5.454  0.00  0.00    +0.227 C 
ATOM     23  O   VAL A   3      17.961   5.522  -5.722  0.00  0.00    -0.286 OA
ENDBRANCH  18  22
ENDBRANCH  16  18
ENDBRANCH   1  14
TORSDOF 9
REMARK  Name = ../refined-set-2016/2byr/2byr_pocket.pdb
REMARK  228 active torsions:
REMARK  status: ('A' for Active; 'I' for Inactive)
REMARK    1  A    between atoms: _1  and  _3
REMARK    2  A    between atoms: _3  and  _4
REMARK    3  A    between atoms: _3  and  _6
REMARK    4  A    between atoms: _6  and  _7
REMARK    5  A    between atoms: _10  and  _12
REMARK    6  A    between atoms: _12  and  _13
REMARK    7  A    between atoms: _12  and  _15
REMARK    8  A    between atoms: _15  and  _16
REMARK    9  A    between atoms: _19  and  _21
REMARK   10  A    between atoms: _21  and  _22
REMARK   11  A    between atoms: _25  and  _27
REMARK   12  A    between atoms: _27  and  _28
REMARK   13  A    between atoms: _27  and  _30
REMARK   14  A    between atoms: _30  and  _31
REMARK   15  A    between atoms: _36  and  _37
REMARK   16  A    between atoms: _39  and  _41
REMARK   17  A    between atoms: _41  and  _42
REMARK   18  A    between atoms: _41  and  _44
REMARK   19  A    between atoms: _44  and  _45
REMARK   20  A    between atoms: _47  and  _49
REMARK   21  A    between atoms: _49  and  _50
REMARK   22  A    between atoms: _49  and  _52
REMARK   23  A    between atoms: _52  and  _53
REMARK   24  A    between atoms: _55  and  _57
REMARK   25  A    between atoms: _57  and  _58
REMARK   26  A    between atoms: _57  and  _60
REMARK   27  A    between atoms: _60  and  _61
REMARK   28  A    between atoms: _61  and  _62
REMARK   29  A    between atoms: _64  and  _66
REMARK   30  A    between atoms: _66  and  _67
REMARK   31  A    between atoms: _70  and  _72
REMARK   32  A    between atoms: _72  and  _73
REMARK   33  A    between atoms: _72  and  _75
REMARK   34  A    between atoms: _78  and  _80
REMARK   35  A    between atoms: _80  and  _81
REMARK   36  A    between atoms: _80  and  _83
REMARK   37  A    between atoms: _83  and  _84
REMARK   38  A    between atoms: _84  and  _85
REMARK   39  A    between atoms: _85  and  _86
REMARK   40  A    between atoms: _86  and  _87
REMARK   41  A    between atoms: _91  and  _93
REMARK   42  A    between atoms: _93  and  _94
REMARK   43  A    between atoms: _93  and  _96
REMARK   44  A    between atoms: _96  and  _97
REMARK   45  A    between atoms: _103  and  _105
REMARK   46  A    between atoms: _105  and  _106
REMARK   47  A    between atoms: _108  and  _110
REMARK   48  A    between atoms: _110  and  _111
REMARK   49  A    between atoms: _110  and  _113
REMARK   50  A    between atoms: _113  and  _114
REMARK   51  A    between atoms: _116  and  _118
REMARK   52  A    between atoms: _118  and  _119
REMARK   53  A    between atoms: _118  and  _121
REMARK   54  A    between atoms: _121  and  _122
REMARK   55  A    between atoms: _132  and  _134
REMARK   56  A    between atoms: _134  and  _135
REMARK   57  A    between atoms: _134  and  _137
REMARK   58  A    between atoms: _140  and  _142
REMARK   59  A    between atoms: _142  and  _143
REMARK   60  A    between atoms: _142  and  _145
REMARK   61  A    between atoms: _145  and  _146
REMARK   62  A    between atoms: _151  and  _152
REMARK   63  A    between atoms: _154  and  _156
REMARK   64  A    between atoms: _156  and  _157
REMARK   65  A    between atoms: _156  and  _159
REMARK   66  A    between atoms: _159  and  _160
REMARK   67  A    between atoms: _162  and  _164
REMARK   68  A    between atoms: _164  and  _165
REMARK   69  A    between atoms: _167  and  _169
REMARK   70  A    between atoms: _169  and  _170
REMARK   71  A    between atoms: _169  and  _172
REMARK   72  A    between atoms: _172  and  _173
REMARK   73  A    between atoms: _173  and  _174
REMARK   74  A    between atoms: _177  and  _179
REMARK   75  A    between atoms: _179  and  _180
REMARK   76  A    between atoms: _179  and  _182
REMARK   77  A    between atoms: _182  and  _183
REMARK   78  A    between atoms: _183  and  _184
REMARK   79  A    between atoms: _189  and  _191
REMARK   80  A    between atoms: _191  and  _192
REMARK   81  A    between atoms: _191  and  _194
REMARK   82  A    between atoms: _197  and  _199
REMARK   83  A    between atoms: _199  and  _200
REMARK   84  A    between atoms: _199  and  _202
REMARK   85  A    between atoms: _202  and  _203
REMARK   86  A    between atoms: _203  and  _204
REMARK   87  A    between atoms: _209  and  _211
REMARK   88  A    between atoms: _211  and  _212
REMARK   89  A    between atoms: _211  and  _214
REMARK   90  A    between atoms: _214  and  _215
REMARK   91  A    between atoms: _220  and  _222
REMARK   92  A    between atoms: _222  and  _223
REMARK   93  A    between atoms: _222  and  _225
REMARK   94  A    between atoms: _225  and  _226
REMARK   95  A    between atoms: _231  and  _232
REMARK   96  A    between atoms: _234  and  _236
REMARK   97  A    between atoms: _236  and  _237
REMARK   98  A    between atoms: _236  and  _239
REMARK   99  A    between atoms: _239  and  _240
REMARK  100  A    between atoms: _242  and  _244
REMARK  101  A    between atoms: _251  and  _252
REMARK  102  A    between atoms: _256  and  _258
REMARK  103  A    between atoms: _258  and  _259
REMARK  104  A    between atoms: _258  and  _261
REMARK  105  A    between atoms: _261  and  _262
REMARK  106  A    between atoms: _262  and  _263
REMARK  107  A    between atoms: _267  and  _268
REMARK  108  A    between atoms: _273  and  _275
REMARK  109  A    between atoms: _275  and  _276
REMARK  110  A    between atoms: _275  and  _278
REMARK  111  A    between atoms: _278  and  _279
REMARK  112  A    between atoms: _284  and  _285
REMARK  113  A    between atoms: _287  and  _289
REMARK  114  A    between atoms: _289  and  _290
REMARK  115  A    between atoms: _289  and  _292
REMARK  116  A    between atoms: _292  and  _293
REMARK  117  A    between atoms: _296  and  _298
REMARK  118  A    between atoms: _298  and  _299
REMARK  119  A    between atoms: _298  and  _301
REMARK  120  A    between atoms: _301  and  _302
REMARK  121  A    between atoms: _305  and  _307
REMARK  122  A    between atoms: _307  and  _308
REMARK  123  A    between atoms: _307  and  _310
REMARK  124  A    between atoms: _313  and  _315
REMARK  125  A    between atoms: _315  and  _316
REMARK  126  A    between atoms: _315  and  _318
REMARK  127  A    between atoms: _318  and  _319
REMARK  128  A    between atoms: _324  and  _326
REMARK  129  A    between atoms: _326  and  _327
REMARK  130  A    between atoms: _326  and  _329
REMARK  131  A    between atoms: _329  and  _330
REMARK  132  A    between atoms: _333  and  _335
REMARK  133  A    between atoms: _335  and  _336
REMARK  134  A    between atoms: _335  and  _338
REMARK  135  A    between atoms: _338  and  _339
REMARK  136  A    between atoms: _342  and  _344
REMARK  137  A    between atoms: _344  and  _345
REMARK  138  A    between atoms: _344  and  _347
REMARK  139  A    between atoms: _347  and  _348
REMARK  140  A    between atoms: _348  and  _349
REMARK  141  A    between atoms: _354  and  _356
REMARK  142  A    between atoms: _356  and  _357
REMARK  143  A    between atoms: _356  and  _359
REMARK  144  A    between atoms: _359  and  _360
REMARK  145  A    between atoms: _363  and  _365
REMARK  146  A    between atoms: _365  and  _366
REMARK  147  A    between atoms: _365  and  _368
REMARK  148  A    between atoms: _371  and  _373
REMARK  149  A    between atoms: _373  and  _374
REMARK  150  A    between atoms: _373  and  _376
REMARK  151  A    between atoms: _376  and  _377
REMARK  152  A    between atoms: _382  and  _383
REMARK  153  A    between atoms: _385  and  _387
REMARK  154  A    between atoms: _387  and  _388
REMARK  155  A    between atoms: _387  and  _390
REMARK  156  A    between atoms: _390  and  _391
REMARK  157  A    between atoms: _391  and  _392
REMARK  158  A    between atoms: _395  and  _397
REMARK  159  A    between atoms: _397  and  _398
REMARK  160  A    between atoms: _397  and  _400
REMARK  161  A    between atoms: _400  and  _401
REMARK  162  A    between atoms: _401  and  _402
REMARK  163  A    between atoms: _407  and  _409
REMARK  164  A    between atoms: _409  and  _410
REMARK  165  A    between atoms: _409  and  _412
REMARK  166  A    between atoms: _412  and  _413
REMARK  167  A    between atoms: _413  and  _414
REMARK  168  A    between atoms: _414  and  _415
REMARK  169  A    between atoms: _424  and  _426
REMARK  170  A    between atoms: _426  and  _427
REMARK  171  A    between atoms: _426  and  _429
REMARK  172  A    between atoms: _429  and  _430
REMARK  173  A    between atoms: _430  and  _431
REMARK  174  A    between atoms: _431  and  _432
REMARK  175  A    between atoms: _441  and  _443
REMARK  176  A    between atoms: _443  and  _444
REMARK  177  A    between atoms: _443  and  _446
REMARK  178  A    between atoms: _446  and  _447
REMARK  179  A    between atoms: _450  and  _451
REMARK  180  A    between atoms: _456  and  _458
REMARK  181  A    between atoms: _458  and  _459
REMARK  182  A    between atoms: _458  and  _461
REMARK  183  A    between atoms: _461  and  _462
REMARK  184  A    between atoms: _465  and  _467
REMARK  185  A    between atoms: _467  and  _468
REMARK  186  A    between atoms: _471  and  _473
REMARK  187  A    between atoms: _473  and  _474
REMARK  188  A    between atoms: _473  and  _476
REMARK  189  A    between atoms: _479  and  _481
REMARK  190  A    between atoms: _481  and  _482
REMARK  191  A    between atoms: _481  and  _484
REMARK  192  A    between atoms: _484  and  _485
REMARK  193  A    between atoms: _485  and  _486
REMARK  194  A    between atoms: _488  and  _490
REMARK  195  A    between atoms: _490  and  _491
REMARK  196  A    between atoms: _490  and  _493
REMARK  197  A    between atoms: _493  and  _494
REMARK  198  A    between atoms: _500  and  _502
REMARK  199  A    between atoms: _502  and  _503
REMARK  200  A    between atoms: _502  and  _505
REMARK  201  A    between atoms: _505  and  _506
REMARK  202  A    between atoms: _510  and  _511
REMARK  203  A    between atoms: _516  and  _518
REMARK  204  A    between atoms: _518  and  _519
REMARK  205  A    between atoms: _522  and  _524
REMARK  206  A    between atoms: _524  and  _525
REMARK  207  A    between atoms: _524  and  _527
REMARK  208  A    between atoms: _527  and  _528
REMARK  209  A    between atoms: _531  and  _533
REMARK  210  A    between atoms: _533  and  _534
REMARK  211  A    between atoms: _533  and  _536
REMARK  212  A    between atoms: _536  and  _537
REMARK  213  A    between atoms: _539  and  _541
REMARK  214  A    between atoms: _541  and  _542
REMARK  215  A    between atoms: _541  and  _544
REMARK  216  A    between atoms: _544  and  _545
REMARK  217  A    between atoms: _547  and  _549
REMARK  218  A    between atoms: _549  and  _550
REMARK  219  A    between atoms: _549  and  _552
REMARK  220  A    between atoms: _552  and  _553
REMARK  221  A    between atoms: _558  and  _559
REMARK  222  A    between atoms: _561  and  _563
REMARK  223  A    between atoms: _563  and  _564
REMARK  224  A    between atoms: _563  and  _566
REMARK  225  A    between atoms: _566  and  _567
REMARK  226  A    between atoms: _572  and  _573
REMARK  227  A    between atoms: _575  and  _577
REMARK  228  A    between atoms: _577  and  _578
REMARK                            x       y       z     vdW  Elec       q    Type
REMARK                         _______ _______ _______ _____ _____    ______ ____
ROOT
ATOM      1  C   PHE A   2      10.531   6.660  -4.725  0.00  0.00    +0.241 C 
ATOM      2  N   ILE A   3       9.850   5.519  -4.804  0.00  0.00    -0.297 N 
ATOM      3  H   ILE A   3      10.285   4.645  -4.444  0.00  0.00    +0.150 HD
ATOM      4  O   PHE A   2      10.034   7.749  -4.988  0.00  0.00    -0.273 OA
ENDROOT
BRANCH   2   5
ATOM      5  CA  ILE A   3       8.504   5.458  -5.384  0.00  0.00    +0.149 C 
BRANCH   5   6
ATOM      6  C   ILE A   3       7.515   4.702  -4.486  0.00  0.00    +0.244 C 
ATOM      7  N   PRO A   4       6.981   5.383  -3.461  0.00  0.00    -0.272 N 
ATOM      8  CA  PRO A   4       5.989   4.749  -2.621  0.00  0.00    +0.152 C 
ATOM      9  CB  PRO A   4       5.972   5.634  -1.376  0.00  0.00    +0.031 C 
ATOM     10  CG  PRO A   4       6.383   6.959  -1.848  0.00  0.00    +0.024 C 
ATOM     11  CD  PRO A   4       7.295   6.744  -3.005  0.00  0.00    +0.094 C 
ATOM     12  O   ILE A   3       7.232   3.522  -4.715  0.00  0.00    -0.273 OA
BRANCH   8  13
ATOM     13  C   PRO A   4       4.608   4.735  -3.264  0.00  0.00    +0.241 C 
ATOM     14  N   ALA A   5       3.969   3.573  -3.214  0.00  0.00    -0.298 N 
ATOM     15  H   ALA A   5       4.488   2.733  -2.888  0.00  0.00    +0.150 HD
ATOM     16  O   PRO A   4       4.154   5.756  -3.799  0.00  0.00    -0.273 OA
BRANCH  14  17
ATOM     17  CA  ALA A   5       2.582   3.427  -3.594  0.00  0.00    +0.137 C 
ATOM     18  CB  ALA A   5       2.339   2.049  -4.117  0.00  0.00    +0.030 C 
BRANCH  17  19
ATOM     19  C   ALA A   5       1.716   3.683  -2.370  0.00  0.00    +0.227 C 
ATOM     20  O   ALA A   5       1.949   3.113  -1.314  0.00  0.00    -0.286 OA
ENDBRANCH  17  19
ENDBRANCH  14  17
ENDBRANCH   8  13
ENDBRANCH   5   6
BRANCH   5  21
ATOM     21  CB  ILE A   3       8.526   4.832  -6.809  0.00  0.00    +0.027 C 
ATOM     22  CG2 ILE A   3       7.161   5.009  -7.494  0.00  0.00    +0.002 C 
BRANCH  21  23
ATOM     23  CG1 ILE A   3       9.616   5.487  -7.645  0.00  0.00    +0.002 C 
ATOM     24  CD1 ILE A   3       9.661   5.065  -9.098  0.00  0.00    +0.000 C 
ENDBRANCH  21  23
ENDBRANCH   5  21
ENDBRANCH   2   5
BRANCH   1  25
ATOM     25  CA  PHE A   2      11.987   6.566  -4.286  0.00  0.00    +0.153 C 
BRANCH  25  28
ATOM     26  C   MET A   1      13.977   6.672  -5.702  0.00  0.00    +0.238 C 
ATOM     27  O   MET A   1      14.433   5.627  -5.279  0.00  0.00    -0.274 OA
ATOM     28  N   PHE A   2      12.811   7.176  -5.316  0.00  0.00    -0.297 N 
ATOM     29  H   PHE A   2      12.472   8.047  -5.772  0.00  0.00    +0.150 HD
BRANCH  26  30
ATOM     30  CA  MET A   1      14.748   7.465  -6.730  0.00  0.00    +0.146 C 
BRANCH  30  31
ATOM     31  N   MET A   1      16.070   7.667  -6.179  0.00  0.00    -0.238 NA
ATOM     32  H   MET A   1      16.651   6.831  -5.965  0.00  0.00    +0.142 HD
ENDBRANCH  30  31
BRANCH  30  33
ATOM     33  CB  MET A   1      14.824   6.666  -8.030  0.00  0.00    +0.038 C 
BRANCH  33  34
ATOM     34  CG  MET A   1      13.470   6.408  -8.672  0.00  0.00    +0.060 C 
BRANCH  34  35
ATOM     35  SD  MET A   1      12.872   7.876  -9.510  0.00  0.00    -0.139 S 
ATOM     36  CE  MET A   1      13.838   7.759 -11.029  0.00  0.00    +0.069 C 
ENDBRANCH  34  35
ENDBRANCH  33  34
ENDBRANCH  30  33
ENDBRANCH  26  30
ENDBRANCH  25  28
BRANCH  25  37
ATOM     37  CB  PHE A   2      12.221   7.306  -2.956  0.00  0.00    +0.055 C 
BRANCH  37  38
ATOM     38  CG  PHE A   2      11.391   6.800  -1.798  0.00  0.00    -0.020 A 
ATOM     39  CD2 PHE A   2      10.757   7.694  -0.952  0.00  0.00    -0.004 A 
ATOM     40  CE2 PHE A   2      10.015   7.261   0.128  0.00  0.00    -0.000 A 
ATOM     41  CZ  PHE A   2       9.899   5.902   0.379  0.00  0.00    -0.000 A 
ATOM     42  CE1 PHE A   2      10.538   4.991  -0.461  0.00  0.00    -0.000 A 
ATOM     43  CD1 PHE A   2      11.281   5.449  -1.535  0.00  0.00    -0.004 A 
ENDBRANCH  37  38
ENDBRANCH  25  37
ENDBRANCH   1  25
TORSDOF 16
REMARK  Name = ../refined-set-2016/2byr/2byr_pocket.pdb
REMARK  228 active torsions:
REMARK  status: ('A' for Active; 'I' for Inactive)
REMARK    1  A    between atoms: _1  and  _3
REMARK    2  A    between atoms: _3  and  _4
REMARK    3  A    between atoms: _3  and  _6
REMARK    4  A    between atoms: _6  and  _7
REMARK    5  A    between atoms: _10  and  _12
REMARK    6  A    between atoms: _12  and  _13
REMARK    7  A    between atoms: _12  and  _15
REMARK    8  A    between atoms: _15  and  _16
REMARK    9  A    between atoms: _19  and  _21
REMARK   10  A    between atoms: _21  and  _22
REMARK   11  A    between atoms: _25  and  _27
REMARK   12  A    between atoms: _27  and  _28
REMARK   13  A    between atoms: _27  and  _30
REMARK   14  A    between atoms: _30  and  _31
REMARK   15  A    between atoms: _36  and  _37
REMARK   16  A    between atoms: _39  and  _41
REMARK   17  A    between atoms: _41  and  _42
REMARK   18  A    between atoms: _41  and  _44
REMARK   19  A    between atoms: _44  and  _45
REMARK   20  A    between atoms: _47  and  _49
REMARK   21  A    between atoms: _49  and  _50
REMARK   22  A    between atoms: _49  and  _52
REMARK   23  A    between atoms: _52  and  _53
REMARK   24  A    between atoms: _55  and  _57
REMARK   25  A    between atoms: _57  and  _58
REMARK   26  A    between atoms: _57  and  _60
REMARK   27  A    between atoms: _60  and  _61
REMARK   28  A    between atoms: _61  and  _62
REMARK   29  A    between atoms: _64  and  _66
REMARK   30  A    between atoms: _66  and  _67
REMARK   31  A    between atoms: _70  and  _72
REMARK   32  A    between atoms: _72  and  _73
REMARK   33  A    between atoms: _72  and  _75
REMARK   34  A    between atoms: _78  and  _80
REMARK   35  A    between atoms: _80  and  _81
REMARK   36  A    between atoms: _80  and  _83
REMARK   37  A    between atoms: _83  and  _84
REMARK   38  A    between atoms: _84  and  _85
REMARK   39  A    between atoms: _85  and  _86
REMARK   40  A    between atoms: _86  and  _87
REMARK   41  A    between atoms: _91  and  _93
REMARK   42  A    between atoms: _93  and  _94
REMARK   43  A    between atoms: _93  and  _96
REMARK   44  A    between atoms: _96  and  _97
REMARK   45  A    between atoms: _103  and  _105
REMARK   46  A    between atoms: _105  and  _106
REMARK   47  A    between atoms: _108  and  _110
REMARK   48  A    between atoms: _110  and  _111
REMARK   49  A    between atoms: _110  and  _113
REMARK   50  A    between atoms: _113  and  _114
REMARK   51  A    between atoms: _116  and  _118
REMARK   52  A    between atoms: _118  and  _119
REMARK   53  A    between atoms: _118  and  _121
REMARK   54  A    between atoms: _121  and  _122
REMARK   55  A    between atoms: _132  and  _134
REMARK   56  A    between atoms: _134  and  _135
REMARK   57  A    between atoms: _134  and  _137
REMARK   58  A    between atoms: _140  and  _142
REMARK   59  A    between atoms: _142  and  _143
REMARK   60  A    between atoms: _142  and  _145
REMARK   61  A    between atoms: _145  and  _146
REMARK   62  A    between atoms: _151  and  _152
REMARK   63  A    between atoms: _154  and  _156
REMARK   64  A    between atoms: _156  and  _157
REMARK   65  A    between atoms: _156  and  _159
REMARK   66  A    between atoms: _159  and  _160
REMARK   67  A    between atoms: _162  and  _164
REMARK   68  A    between atoms: _164  and  _165
REMARK   69  A    between atoms: _167  and  _169
REMARK   70  A    between atoms: _169  and  _170
REMARK   71  A    between atoms: _169  and  _172
REMARK   72  A    between atoms: _172  and  _173
REMARK   73  A    between atoms: _173  and  _174
REMARK   74  A    between atoms: _177  and  _179
REMARK   75  A    between atoms: _179  and  _180
REMARK   76  A    between atoms: _179  and  _182
REMARK   77  A    between atoms: _182  and  _183
REMARK   78  A    between atoms: _183  and  _184
REMARK   79  A    between atoms: _189  and  _191
REMARK   80  A    between atoms: _191  and  _192
REMARK   81  A    between atoms: _191  and  _194
REMARK   82  A    between atoms: _197  and  _199
REMARK   83  A    between atoms: _199  and  _200
REMARK   84  A    between atoms: _199  and  _202
REMARK   85  A    between atoms: _202  and  _203
REMARK   86  A    between atoms: _203  and  _204
REMARK   87  A    between atoms: _209  and  _211
REMARK   88  A    between atoms: _211  and  _212
REMARK   89  A    between atoms: _211  and  _214
REMARK   90  A    between atoms: _214  and  _215
REMARK   91  A    between atoms: _220  and  _222
REMARK   92  A    between atoms: _222  and  _223
REMARK   93  A    between atoms: _222  and  _225
REMARK   94  A    between atoms: _225  and  _226
REMARK   95  A    between atoms: _231  and  _232
REMARK   96  A    between atoms: _234  and  _236
REMARK   97  A    between atoms: _236  and  _237
REMARK   98  A    between atoms: _236  and  _239
REMARK   99  A    between atoms: _239  and  _240
REMARK  100  A    between atoms: _242  and  _244
REMARK  101  A    between atoms: _251  and  _252
REMARK  102  A    between atoms: _256  and  _258
REMARK  103  A    between atoms: _258  and  _259
REMARK  104  A    between atoms: _258  and  _261
REMARK  105  A    between atoms: _261  and  _262
REMARK  106  A    between atoms: _262  and  _263
REMARK  107  A    between atoms: _267  and  _268
REMARK  108  A    between atoms: _273  and  _275
REMARK  109  A    between atoms: _275  and  _276
REMARK  110  A    between atoms: _275  and  _278
REMARK  111  A    between atoms: _278  and  _279
REMARK  112  A    between atoms: _284  and  _285
REMARK  113  A    between atoms: _287  and  _289
REMARK  114  A    between atoms: _289  and  _290
REMARK  115  A    between atoms: _289  and  _292
REMARK  116  A    between atoms: _292  and  _293
REMARK  117  A    between atoms: _296  and  _298
REMARK  118  A    between atoms: _298  and  _299
REMARK  119  A    between atoms: _298  and  _301
REMARK  120  A    between atoms: _301  and  _302
REMARK  121  A    between atoms: _305  and  _307
REMARK  122  A    between atoms: _307  and  _308
REMARK  123  A    between atoms: _307  and  _310
REMARK  124  A    between atoms: _313  and  _315
REMARK  125  A    between atoms: _315  and  _316
REMARK  126  A    between atoms: _315  and  _318
REMARK  127  A    between atoms: _318  and  _319
REMARK  128  A    between atoms: _324  and  _326
REMARK  129  A    between atoms: _326  and  _327
REMARK  130  A    between atoms: _326  and  _329
REMARK  131  A    between atoms: _329  and  _330
REMARK  132  A    between atoms: _333  and  _335
REMARK  133  A    between atoms: _335  and  _336
REMARK  134  A    between atoms: _335  and  _338
REMARK  135  A    between atoms: _338  and  _339
REMARK  136  A    between atoms: _342  and  _344
REMARK  137  A    between atoms: _344  and  _345
REMARK  138  A    between atoms: _344  and  _347
REMARK  139  A    between atoms: _347  and  _348
REMARK  140  A    between atoms: _348  and  _349
REMARK  141  A    between atoms: _354  and  _356
REMARK  142  A    between atoms: _356  and  _357
REMARK  143  A    between atoms: _356  and  _359
REMARK  144  A    between atoms: _359  and  _360
REMARK  145  A    between atoms: _363  and  _365
REMARK  146  A    between atoms: _365  and  _366
REMARK  147  A    between atoms: _365  and  _368
REMARK  148  A    between atoms: _371  and  _373
REMARK  149  A    between atoms: _373  and  _374
REMARK  150  A    between atoms: _373  and  _376
REMARK  151  A    between atoms: _376  and  _377
REMARK  152  A    between atoms: _382  and  _383
REMARK  153  A    between atoms: _385  and  _387
REMARK  154  A    between atoms: _387  and  _388
REMARK  155  A    between atoms: _387  and  _390
REMARK  156  A    between atoms: _390  and  _391
REMARK  157  A    between atoms: _391  and  _392
REMARK  158  A    between atoms: _395  and  _397
REMARK  159  A    between atoms: _397  and  _398
REMARK  160  A    between atoms: _397  and  _400
REMARK  161  A    between atoms: _400  and  _401
REMARK  162  A    between atoms: _401  and  _402
REMARK  163  A    between atoms: _407  and  _409
REMARK  164  A    between atoms: _409  and  _410
REMARK  165  A    between atoms: _409  and  _412
REMARK  166  A    between atoms: _412  and  _413
REMARK  167  A    between atoms: _413  and  _414
REMARK  168  A    between atoms: _414  and  _415
REMARK  169  A    between atoms: _424  and  _426
REMARK  170  A    between atoms: _426  and  _427
REMARK  171  A    between atoms: _426  and  _429
REMARK  172  A    between atoms: _429  and  _430
REMARK  173  A    between atoms: _430  and  _431
REMARK  174  A    between atoms: _431  and  _432
REMARK  175  A    between atoms: _441  and  _443
REMARK  176  A    between atoms: _443  and  _444
REMARK  177  A    between atoms: _443  and  _446
REMARK  178  A    between atoms: _446  and  _447
REMARK  179  A    between atoms: _450  and  _451
REMARK  180  A    between atoms: _456  and  _458
REMARK  181  A    between atoms: _458  and  _459
REMARK  182  A    between atoms: _458  and  _461
REMARK  183  A    between atoms: _461  and  _462
REMARK  184  A    between atoms: _465  and  _467
REMARK  185  A    between atoms: _467  and  _468
REMARK  186  A    between atoms: _471  and  _473
REMARK  187  A    between atoms: _473  and  _474
REMARK  188  A    between atoms: _473  and  _476
REMARK  189  A    between atoms: _479  and  _481
REMARK  190  A    between atoms: _481  and  _482
REMARK  191  A    between atoms: _481  and  _484
REMARK  192  A    between atoms: _484  and  _485
REMARK  193  A    between atoms: _485  and  _486
REMARK  194  A    between atoms: _488  and  _490
REMARK  195  A    between atoms: _490  and  _491
REMARK  196  A    between atoms: _490  and  _493
REMARK  197  A    between atoms: _493  and  _494
REMARK  198  A    between atoms: _500  and  _502
REMARK  199  A    between atoms: _502  and  _503
REMARK  200  A    between atoms: _502  and  _505
REMARK  201  A    between atoms: _505  and  _506
REMARK  202  A    between atoms: _510  and  _511
REMARK  203  A    between atoms: _516  and  _518
REMARK  204  A    between atoms: _518  and  _519
REMARK  205  A    between atoms: _522  and  _524
REMARK  206  A    between atoms: _524  and  _525
REMARK  207  A    between atoms: _524  and  _527
REMARK  208  A    between atoms: _527  and  _528
REMARK  209  A    between atoms: _531  and  _533
REMARK  210  A    between atoms: _533  and  _534
REMARK  211  A    between atoms: _533  and  _536
REMARK  212  A    between atoms: _536  and  _537
REMARK  213  A    between atoms: _539  and  _541
REMARK  214  A    between atoms: _541  and  _542
REMARK  215  A    between atoms: _541  and  _544
REMARK  216  A    between atoms: _544  and  _545
REMARK  217  A    between atoms: _547  and  _549
REMARK  218  A    between atoms: _549  and  _550
REMARK  219  A    between atoms: _549  and  _552
REMARK  220  A    between atoms: _552  and  _553
REMARK  221  A    between atoms: _558  and  _559
REMARK  222  A    between atoms: _561  and  _563
REMARK  223  A    between atoms: _563  and  _564
REMARK  224  A    between atoms: _563  and  _566
REMARK  225  A    between atoms: _566  and  _567
REMARK  226  A    between atoms: _572  and  _573
REMARK  227  A    between atoms: _575  and  _577
REMARK  228  A    between atoms: _577  and  _578
REMARK                            x       y       z     vdW  Elec       q    Type
REMARK                         _______ _______ _______ _____ _____    ______ ____
ROOT
ATOM      1  CA  ASP A   1       0.500   9.211 -15.898  0.00  0.00    +0.144 C 
ENDROOT
BRANCH   1   2
ATOM      2  N   ASP A   1       0.413  10.444 -15.134  0.00  0.00    -0.239 NA
ATOM      3  H   ASP A   1       0.984  10.555 -14.272  0.00  0.00    +0.142 HD
ENDBRANCH   1   2
BRANCH   1   4
ATOM      4  C   ASP A   1      -0.741   8.340 -15.648  0.00  0.00    +0.225 C 
ATOM      5  O   ASP A   1      -0.954   7.849 -14.543  0.00  0.00    -0.287 OA
ENDBRANCH   1   4
BRANCH   1   6
ATOM      6  CB  ASP A   1       1.780   8.451 -15.539  0.00  0.00    +0.139 C 
BRANCH   6   7
ATOM      7  CG  ASP A   1       1.974   7.184 -16.386  0.00  0.00    +0.367 C 
ATOM      8  OD2 ASP A   1       2.965   6.449 -16.132  0.00  0.00    -0.246 OA
ATOM      9  OD1 ASP A   1       1.143   6.918 -17.300  0.00  0.00    -0.246 OA
ENDBRANCH   6   7
ENDBRANCH   1   6
TORSDOF 4
REMARK  Name = ../refined-set-2016/2byr/2byr_pocket.pdb
REMARK  228 active torsions:
REMARK  status: ('A' for Active; 'I' for Inactive)
REMARK    1  A    between atoms: _1  and  _3
REMARK    2  A    between atoms: _3  and  _4
REMARK    3  A    between atoms: _3  and  _6
REMARK    4  A    between atoms: _6  and  _7
REMARK    5  A    between atoms: _10  and  _12
REMARK    6  A    between atoms: _12  and  _13
REMARK    7  A    between atoms: _12  and  _15
REMARK    8  A    between atoms: _15  and  _16
REMARK    9  A    between atoms: _19  and  _21
REMARK   10  A    between atoms: _21  and  _22
REMARK   11  A    between atoms: _25  and  _27
REMARK   12  A    between atoms: _27  and  _28
REMARK   13  A    between atoms: _27  and  _30
REMARK   14  A    between atoms: _30  and  _31
REMARK   15  A    between atoms: _36  and  _37
REMARK   16  A    between atoms: _39  and  _41
REMARK   17  A    between atoms: _41  and  _42
REMARK   18  A    between atoms: _41  and  _44
REMARK   19  A    between atoms: _44  and  _45
REMARK   20  A    between atoms: _47  and  _49
REMARK   21  A    between atoms: _49  and  _50
REMARK   22  A    between atoms: _49  and  _52
REMARK   23  A    between atoms: _52  and  _53
REMARK   24  A    between atoms: _55  and  _57
REMARK   25  A    between atoms: _57  and  _58
REMARK   26  A    between atoms: _57  and  _60
REMARK   27  A    between atoms: _60  and  _61
REMARK   28  A    between atoms: _61  and  _62
REMARK   29  A    between atoms: _64  and  _66
REMARK   30  A    between atoms: _66  and  _67
REMARK   31  A    between atoms: _70  and  _72
REMARK   32  A    between atoms: _72  and  _73
REMARK   33  A    between atoms: _72  and  _75
REMARK   34  A    between atoms: _78  and  _80
REMARK   35  A    between atoms: _80  and  _81
REMARK   36  A    between atoms: _80  and  _83
REMARK   37  A    between atoms: _83  and  _84
REMARK   38  A    between atoms: _84  and  _85
REMARK   39  A    between atoms: _85  and  _86
REMARK   40  A    between atoms: _86  and  _87
REMARK   41  A    between atoms: _91  and  _93
REMARK   42  A    between atoms: _93  and  _94
REMARK   43  A    between atoms: _93  and  _96
REMARK   44  A    between atoms: _96  and  _97
REMARK   45  A    between atoms: _103  and  _105
REMARK   46  A    between atoms: _105  and  _106
REMARK   47  A    between atoms: _108  and  _110
REMARK   48  A    between atoms: _110  and  _111
REMARK   49  A    between atoms: _110  and  _113
REMARK   50  A    between atoms: _113  and  _114
REMARK   51  A    between atoms: _116  and  _118
REMARK   52  A    between atoms: _118  and  _119
REMARK   53  A    between atoms: _118  and  _121
REMARK   54  A    between atoms: _121  and  _122
REMARK   55  A    between atoms: _132  and  _134
REMARK   56  A    between atoms: _134  and  _135
REMARK   57  A    between atoms: _134  and  _137
REMARK   58  A    between atoms: _140  and  _142
REMARK   59  A    between atoms: _142  and  _143
REMARK   60  A    between atoms: _142  and  _145
REMARK   61  A    between atoms: _145  and  _146
REMARK   62  A    between atoms: _151  and  _152
REMARK   63  A    between atoms: _154  and  _156
REMARK   64  A    between atoms: _156  and  _157
REMARK   65  A    between atoms: _156  and  _159
REMARK   66  A    between atoms: _159  and  _160
REMARK   67  A    between atoms: _162  and  _164
REMARK   68  A    between atoms: _164  and  _165
REMARK   69  A    between atoms: _167  and  _169
REMARK   70  A    between atoms: _169  and  _170
REMARK   71  A    between atoms: _169  and  _172
REMARK   72  A    between atoms: _172  and  _173
REMARK   73  A    between atoms: _173  and  _174
REMARK   74  A    between atoms: _177  and  _179
REMARK   75  A    between atoms: _179  and  _180
REMARK   76  A    between atoms: _179  and  _182
REMARK   77  A    between atoms: _182  and  _183
REMARK   78  A    between atoms: _183  and  _184
REMARK   79  A    between atoms: _189  and  _191
REMARK   80  A    between atoms: _191  and  _192
REMARK   81  A    between atoms: _191  and  _194
REMARK   82  A    between atoms: _197  and  _199
REMARK   83  A    between atoms: _199  and  _200
REMARK   84  A    between atoms: _199  and  _202
REMARK   85  A    between atoms: _202  and  _203
REMARK   86  A    between atoms: _203  and  _204
REMARK   87  A    between atoms: _209  and  _211
REMARK   88  A    between atoms: _211  and  _212
REMARK   89  A    between atoms: _211  and  _214
REMARK   90  A    between atoms: _214  and  _215
REMARK   91  A    between atoms: _220  and  _222
REMARK   92  A    between atoms: _222  and  _223
REMARK   93  A    between atoms: _222  and  _225
REMARK   94  A    between atoms: _225  and  _226
REMARK   95  A    between atoms: _231  and  _232
REMARK   96  A    between atoms: _234  and  _236
REMARK   97  A    between atoms: _236  and  _237
REMARK   98  A    between atoms: _236  and  _239
REMARK   99  A    between atoms: _239  and  _240
REMARK  100  A    between atoms: _242  and  _244
REMARK  101  A    between atoms: _251  and  _252
REMARK  102  A    between atoms: _256  and  _258
REMARK  103  A    between atoms: _258  and  _259
REMARK  104  A    between atoms: _258  and  _261
REMARK  105  A    between atoms: _261  and  _262
REMARK  106  A    between atoms: _262  and  _263
REMARK  107  A    between atoms: _267  and  _268
REMARK  108  A    between atoms: _273  and  _275
REMARK  109  A    between atoms: _275  and  _276
REMARK  110  A    between atoms: _275  and  _278
REMARK  111  A    between atoms: _278  and  _279
REMARK  112  A    between atoms: _284  and  _285
REMARK  113  A    between atoms: _287  and  _289
REMARK  114  A    between atoms: _289  and  _290
REMARK  115  A    between atoms: _289  and  _292
REMARK  116  A    between atoms: _292  and  _293
REMARK  117  A    between atoms: _296  and  _298
REMARK  118  A    between atoms: _298  and  _299
REMARK  119  A    between atoms: _298  and  _301
REMARK  120  A    between atoms: _301  and  _302
REMARK  121  A    between atoms: _305  and  _307
REMARK  122  A    between atoms: _307  and  _308
REMARK  123  A    between atoms: _307  and  _310
REMARK  124  A    between atoms: _313  and  _315
REMARK  125  A    between atoms: _315  and  _316
REMARK  126  A    between atoms: _315  and  _318
REMARK  127  A    between atoms: _318  and  _319
REMARK  128  A    between atoms: _324  and  _326
REMARK  129  A    between atoms: _326  and  _327
REMARK  130  A    between atoms: _326  and  _329
REMARK  131  A    between atoms: _329  and  _330
REMARK  132  A    between atoms: _333  and  _335
REMARK  133  A    between atoms: _335  and  _336
REMARK  134  A    between atoms: _335  and  _338
REMARK  135  A    between atoms: _338  and  _339
REMARK  136  A    between atoms: _342  and  _344
REMARK  137  A    between atoms: _344  and  _345
REMARK  138  A    between atoms: _344  and  _347
REMARK  139  A    between atoms: _347  and  _348
REMARK  140  A    between atoms: _348  and  _349
REMARK  141  A    between atoms: _354  and  _356
REMARK  142  A    between atoms: _356  and  _357
REMARK  143  A    between atoms: _356  and  _359
REMARK  144  A    between atoms: _359  and  _360
REMARK  145  A    between atoms: _363  and  _365
REMARK  146  A    between atoms: _365  and  _366
REMARK  147  A    between atoms: _365  and  _368
REMARK  148  A    between atoms: _371  and  _373
REMARK  149  A    between atoms: _373  and  _374
REMARK  150  A    between atoms: _373  and  _376
REMARK  151  A    between atoms: _376  and  _377
REMARK  152  A    between atoms: _382  and  _383
REMARK  153  A    between atoms: _385  and  _387
REMARK  154  A    between atoms: _387  and  _388
REMARK  155  A    between atoms: _387  and  _390
REMARK  156  A    between atoms: _390  and  _391
REMARK  157  A    between atoms: _391  and  _392
REMARK  158  A    between atoms: _395  and  _397
REMARK  159  A    between atoms: _397  and  _398
REMARK  160  A    between atoms: _397  and  _400
REMARK  161  A    between atoms: _400  and  _401
REMARK  162  A    between atoms: _401  and  _402
REMARK  163  A    between atoms: _407  and  _409
REMARK  164  A    between atoms: _409  and  _410
REMARK  165  A    between atoms: _409  and  _412
REMARK  166  A    between atoms: _412  and  _413
REMARK  167  A    between atoms: _413  and  _414
REMARK  168  A    between atoms: _414  and  _415
REMARK  169  A    between atoms: _424  and  _426
REMARK  170  A    between atoms: _426  and  _427
REMARK  171  A    between atoms: _426  and  _429
REMARK  172  A    between atoms: _429  and  _430
REMARK  173  A    between atoms: _430  and  _431
REMARK  174  A    between atoms: _431  and  _432
REMARK  175  A    between atoms: _441  and  _443
REMARK  176  A    between atoms: _443  and  _444
REMARK  177  A    between atoms: _443  and  _446
REMARK  178  A    between atoms: _446  and  _447
REMARK  179  A    between atoms: _450  and  _451
REMARK  180  A    between atoms: _456  and  _458
REMARK  181  A    between atoms: _458  and  _459
REMARK  182  A    between atoms: _458  and  _461
REMARK  183  A    between atoms: _461  and  _462
REMARK  184  A    between atoms: _465  and  _467
REMARK  185  A    between atoms: _467  and  _468
REMARK  186  A    between atoms: _471  and  _473
REMARK  187  A    between atoms: _473  and  _474
REMARK  188  A    between atoms: _473  and  _476
REMARK  189  A    between atoms: _479  and  _481
REMARK  190  A    between atoms: _481  and  _482
REMARK  191  A    between atoms: _481  and  _484
REMARK  192  A    between atoms: _484  and  _485
REMARK  193  A    between atoms: _485  and  _486
REMARK  194  A    between atoms: _488  and  _490
REMARK  195  A    between atoms: _490  and  _491
REMARK  196  A    between atoms: _490  and  _493
REMARK  197  A    between atoms: _493  and  _494
REMARK  198  A    between atoms: _500  and  _502
REMARK  199  A    between atoms: _502  and  _503
REMARK  200  A    between atoms: _502  and  _505
REMARK  201  A    between atoms: _505  and  _506
REMARK  202  A    between atoms: _510  and  _511
REMARK  203  A    between atoms: _516  and  _518
REMARK  204  A    between atoms: _518  and  _519
REMARK  205  A    between atoms: _522  and  _524
REMARK  206  A    between atoms: _524  and  _525
REMARK  207  A    between atoms: _524  and  _527
REMARK  208  A    between atoms: _527  and  _528
REMARK  209  A    between atoms: _531  and  _533
REMARK  210  A    between atoms: _533  and  _534
REMARK  211  A    between atoms: _533  and  _536
REMARK  212  A    between atoms: _536  and  _537
REMARK  213  A    between atoms: _539  and  _541
REMARK  214  A    between atoms: _541  and  _542
REMARK  215  A    between atoms: _541  and  _544
REMARK  216  A    between atoms: _544  and  _545
REMARK  217  A    between atoms: _547  and  _549
REMARK  218  A    between atoms: _549  and  _550
REMARK  219  A    between atoms: _549  and  _552
REMARK  220  A    between atoms: _552  and  _553
REMARK  221  A    between atoms: _558  and  _559
REMARK  222  A    between atoms: _561  and  _563
REMARK  223  A    between atoms: _563  and  _564
REMARK  224  A    between atoms: _563  and  _566
REMARK  225  A    between atoms: _566  and  _567
REMARK  226  A    between atoms: _572  and  _573
REMARK  227  A    between atoms: _575  and  _577
REMARK  228  A    between atoms: _577  and  _578
REMARK                            x       y       z     vdW  Elec       q    Type
REMARK                         _______ _______ _______ _____ _____    ______ ____
ROOT
ATOM      1  CA  TYR A   3      -5.074   3.384 -14.505  0.00  0.00    +0.153 C 
ENDROOT
BRANCH   1   4
ATOM      2  C   SER A   2      -3.026   2.140 -14.911  0.00  0.00    +0.243 C 
ATOM      3  O   SER A   2      -3.272   1.367 -13.992  0.00  0.00    -0.273 OA
ATOM      4  N   TYR A   3      -3.815   3.176 -15.203  0.00  0.00    -0.297 N 
ATOM      5  H   TYR A   3      -3.524   3.847 -15.943  0.00  0.00    +0.150 HD
BRANCH   2   6
ATOM      6  CA  SER A   2      -1.783   1.934 -15.784  0.00  0.00    +0.178 C 
BRANCH   6   8
ATOM      7  C   SER A   1      -1.467   3.122 -17.889  0.00  0.00    +0.241 C 
ATOM      8  N   SER A   2      -1.469   3.131 -16.562  0.00  0.00    -0.295 N 
ATOM      9  H   SER A   2      -1.241   4.014 -16.062  0.00  0.00    +0.150 HD
ATOM     10  O   SER A   1      -1.594   2.095 -18.533  0.00  0.00    -0.274 OA
BRANCH   7  11
ATOM     11  CA  SER A   1      -1.282   4.460 -18.604  0.00  0.00    +0.174 C 
BRANCH  11  12
ATOM     12  N   SER A   1      -1.454   5.625 -17.709  0.00  0.00    -0.236 NA
ATOM     13  H   SER A   1      -0.617   6.108 -17.325  0.00  0.00    +0.142 HD
ENDBRANCH  11  12
BRANCH  11  14
ATOM     14  CB  SER A   1       0.083   4.497 -19.292  0.00  0.00    +0.163 C 
BRANCH  14  15
ATOM     15  OG  SER A   1       1.133   4.503 -18.339  0.00  0.00    -0.380 OA
ATOM     16  H   SER A   1       1.047   5.301 -17.760  0.00  0.00    +0.211 HD
ENDBRANCH  14  15
ENDBRANCH  11  14
ENDBRANCH   7  11
ENDBRANCH   6   8
BRANCH   6  17
ATOM     17  CB  SER A   2      -0.594   1.576 -14.917  0.00  0.00    +0.166 C 
BRANCH  17  18
ATOM     18  OG  SER A   2       0.077   2.755 -14.523  0.00  0.00    -0.380 OA
ATOM     19  H   SER A   2       0.854   2.518 -13.957  0.00  0.00    +0.211 HD
ENDBRANCH  17  18
ENDBRANCH   6  17
ENDBRANCH   2   6
ENDBRANCH   1   4
BRANCH   1  20
ATOM     20  C   TYR A   3      -5.986   2.190 -14.752  0.00  0.00    +0.241 C 
ATOM     21  N   TYR A   4      -6.623   1.712 -13.690  0.00  0.00    -0.297 N 
ATOM     22  H   TYR A   4      -6.573   2.242 -12.797  0.00  0.00    +0.150 HD
ATOM     23  O   TYR A   3      -6.113   1.727 -15.877  0.00  0.00    -0.273 OA
BRANCH  21  24
ATOM     24  CA  TYR A   4      -7.387   0.477 -13.727  0.00  0.00    +0.153 C 
BRANCH  24  25
ATOM     25  C   TYR A   4      -8.614   0.581 -14.634  0.00  0.00    +0.241 C 
ATOM     26  O   TYR A   4      -9.512   1.390 -14.395  0.00  0.00    -0.273 OA
ATOM     27  N   ALA A   5      -8.638  -0.276 -15.652  0.00  0.00    -0.298 N 
ATOM     28  H   ALA A   5      -7.899  -1.006 -15.700  0.00  0.00    +0.150 HD
BRANCH  27  29
ATOM     29  CA  ALA A   5      -9.654  -0.243 -16.709  0.00  0.00    +0.137 C 
ATOM     30  CB  ALA A   5      -9.302  -1.258 -17.827  0.00  0.00    +0.030 C 
BRANCH  29  31
ATOM     31  C   ALA A   5     -11.069  -0.509 -16.217  0.00  0.00    +0.227 C 
ATOM     32  O   ALA A   5     -12.026  -0.071 -16.850  0.00  0.00    -0.286 OA
ENDBRANCH  29  31
ENDBRANCH  27  29
ENDBRANCH  24  25
BRANCH  24  33
ATOM     33  CB  TYR A   4      -7.802   0.080 -12.307  0.00  0.00    +0.055 C 
BRANCH  33  34
ATOM     34  CG  TYR A   4      -8.660  -1.165 -12.217  0.00  0.00    -0.020 A 
ATOM     35  CD2 TYR A   4      -9.826  -1.171 -11.453  0.00  0.00    -0.001 A 
ATOM     36  CE2 TYR A   4     -10.605  -2.304 -11.343  0.00  0.00    +0.036 A 
ATOM     37  CZ  TYR A   4     -10.234  -3.454 -12.003  0.00  0.00    +0.134 A 
ATOM     38  CE1 TYR A   4      -9.082  -3.478 -12.776  0.00  0.00    +0.036 A 
ATOM     39  CD1 TYR A   4      -8.298  -2.333 -12.871  0.00  0.00    -0.001 A 
BRANCH  37  40
ATOM     40  OH  TYR A   4     -11.032  -4.572 -11.902  0.00  0.00    -0.506 OA
ATOM     41  HH  TYR A   4     -10.633  -5.309 -12.428  0.00  0.00    +0.292 HD
ENDBRANCH  37  40
ENDBRANCH  33  34
ENDBRANCH  24  33
ENDBRANCH  21  24
ENDBRANCH   1  20
BRANCH   1  42
ATOM     42  CB  TYR A   3      -5.773   4.667 -14.949  0.00  0.00    +0.055 C 
BRANCH  42  43
ATOM     43  CG  TYR A   3      -6.970   4.944 -14.079  0.00  0.00    -0.020 A 
ATOM     44  CD2 TYR A   3      -6.810   5.549 -12.832  0.00  0.00    -0.001 A 
ATOM     45  CE2 TYR A   3      -7.883   5.781 -12.010  0.00  0.00    +0.036 A 
ATOM     46  CZ  TYR A   3      -9.155   5.389 -12.402  0.00  0.00    +0.134 A 
ATOM     47  CE1 TYR A   3      -9.351   4.770 -13.641  0.00  0.00    +0.036 A 
ATOM     48  CD1 TYR A   3      -8.252   4.539 -14.463  0.00  0.00    -0.001 A 
BRANCH  46  49
ATOM     49  OH  TYR A   3     -10.213   5.630 -11.555  0.00  0.00    -0.506 OA
ATOM     50  HH  TYR A   3     -10.647   4.772 -11.319  0.00  0.00    +0.292 HD
ENDBRANCH  46  49
ENDBRANCH  42  43
ENDBRANCH   1  42
TORSDOF 20
REMARK  Name = ../refined-set-2016/2byr/2byr_pocket.pdb
REMARK  228 active torsions:
REMARK  status: ('A' for Active; 'I' for Inactive)
REMARK    1  A    between atoms: _1  and  _3
REMARK    2  A    between atoms: _3  and  _4
REMARK    3  A    between atoms: _3  and  _6
REMARK    4  A    between atoms: _6  and  _7
REMARK    5  A    between atoms: _10  and  _12
REMARK    6  A    between atoms: _12  and  _13
REMARK    7  A    between atoms: _12  and  _15
REMARK    8  A    between atoms: _15  and  _16
REMARK    9  A    between atoms: _19  and  _21
REMARK   10  A    between atoms: _21  and  _22
REMARK   11  A    between atoms: _25  and  _27
REMARK   12  A    between atoms: _27  and  _28
REMARK   13  A    between atoms: _27  and  _30
REMARK   14  A    between atoms: _30  and  _31
REMARK   15  A    between atoms: _36  and  _37
REMARK   16  A    between atoms: _39  and  _41
REMARK   17  A    between atoms: _41  and  _42
REMARK   18  A    between atoms: _41  and  _44
REMARK   19  A    between atoms: _44  and  _45
REMARK   20  A    between atoms: _47  and  _49
REMARK   21  A    between atoms: _49  and  _50
REMARK   22  A    between atoms: _49  and  _52
REMARK   23  A    between atoms: _52  and  _53
REMARK   24  A    between atoms: _55  and  _57
REMARK   25  A    between atoms: _57  and  _58
REMARK   26  A    between atoms: _57  and  _60
REMARK   27  A    between atoms: _60  and  _61
REMARK   28  A    between atoms: _61  and  _62
REMARK   29  A    between atoms: _64  and  _66
REMARK   30  A    between atoms: _66  and  _67
REMARK   31  A    between atoms: _70  and  _72
REMARK   32  A    between atoms: _72  and  _73
REMARK   33  A    between atoms: _72  and  _75
REMARK   34  A    between atoms: _78  and  _80
REMARK   35  A    between atoms: _80  and  _81
REMARK   36  A    between atoms: _80  and  _83
REMARK   37  A    between atoms: _83  and  _84
REMARK   38  A    between atoms: _84  and  _85
REMARK   39  A    between atoms: _85  and  _86
REMARK   40  A    between atoms: _86  and  _87
REMARK   41  A    between atoms: _91  and  _93
REMARK   42  A    between atoms: _93  and  _94
REMARK   43  A    between atoms: _93  and  _96
REMARK   44  A    between atoms: _96  and  _97
REMARK   45  A    between atoms: _103  and  _105
REMARK   46  A    between atoms: _105  and  _106
REMARK   47  A    between atoms: _108  and  _110
REMARK   48  A    between atoms: _110  and  _111
REMARK   49  A    between atoms: _110  and  _113
REMARK   50  A    between atoms: _113  and  _114
REMARK   51  A    between atoms: _116  and  _118
REMARK   52  A    between atoms: _118  and  _119
REMARK   53  A    between atoms: _118  and  _121
REMARK   54  A    between atoms: _121  and  _122
REMARK   55  A    between atoms: _132  and  _134
REMARK   56  A    between atoms: _134  and  _135
REMARK   57  A    between atoms: _134  and  _137
REMARK   58  A    between atoms: _140  and  _142
REMARK   59  A    between atoms: _142  and  _143
REMARK   60  A    between atoms: _142  and  _145
REMARK   61  A    between atoms: _145  and  _146
REMARK   62  A    between atoms: _151  and  _152
REMARK   63  A    between atoms: _154  and  _156
REMARK   64  A    between atoms: _156  and  _157
REMARK   65  A    between atoms: _156  and  _159
REMARK   66  A    between atoms: _159  and  _160
REMARK   67  A    between atoms: _162  and  _164
REMARK   68  A    between atoms: _164  and  _165
REMARK   69  A    between atoms: _167  and  _169
REMARK   70  A    between atoms: _169  and  _170
REMARK   71  A    between atoms: _169  and  _172
REMARK   72  A    between atoms: _172  and  _173
REMARK   73  A    between atoms: _173  and  _174
REMARK   74  A    between atoms: _177  and  _179
REMARK   75  A    between atoms: _179  and  _180
REMARK   76  A    between atoms: _179  and  _182
REMARK   77  A    between atoms: _182  and  _183
REMARK   78  A    between atoms: _183  and  _184
REMARK   79  A    between atoms: _189  and  _191
REMARK   80  A    between atoms: _191  and  _192
REMARK   81  A    between atoms: _191  and  _194
REMARK   82  A    between atoms: _197  and  _199
REMARK   83  A    between atoms: _199  and  _200
REMARK   84  A    between atoms: _199  and  _202
REMARK   85  A    between atoms: _202  and  _203
REMARK   86  A    between atoms: _203  and  _204
REMARK   87  A    between atoms: _209  and  _211
REMARK   88  A    between atoms: _211  and  _212
REMARK   89  A    between atoms: _211  and  _214
REMARK   90  A    between atoms: _214  and  _215
REMARK   91  A    between atoms: _220  and  _222
REMARK   92  A    between atoms: _222  and  _223
REMARK   93  A    between atoms: _222  and  _225
REMARK   94  A    between atoms: _225  and  _226
REMARK   95  A    between atoms: _231  and  _232
REMARK   96  A    between atoms: _234  and  _236
REMARK   97  A    between atoms: _236  and  _237
REMARK   98  A    between atoms: _236  and  _239
REMARK   99  A    between atoms: _239  and  _240
REMARK  100  A    between atoms: _242  and  _244
REMARK  101  A    between atoms: _251  and  _252
REMARK  102  A    between atoms: _256  and  _258
REMARK  103  A    between atoms: _258  and  _259
REMARK  104  A    between atoms: _258  and  _261
REMARK  105  A    between atoms: _261  and  _262
REMARK  106  A    between atoms: _262  and  _263
REMARK  107  A    between atoms: _267  and  _268
REMARK  108  A    between atoms: _273  and  _275
REMARK  109  A    between atoms: _275  and  _276
REMARK  110  A    between atoms: _275  and  _278
REMARK  111  A    between atoms: _278  and  _279
REMARK  112  A    between atoms: _284  and  _285
REMARK  113  A    between atoms: _287  and  _289
REMARK  114  A    between atoms: _289  and  _290
REMARK  115  A    between atoms: _289  and  _292
REMARK  116  A    between atoms: _292  and  _293
REMARK  117  A    between atoms: _296  and  _298
REMARK  118  A    between atoms: _298  and  _299
REMARK  119  A    between atoms: _298  and  _301
REMARK  120  A    between atoms: _301  and  _302
REMARK  121  A    between atoms: _305  and  _307
REMARK  122  A    between atoms: _307  and  _308
REMARK  123  A    between atoms: _307  and  _310
REMARK  124  A    between atoms: _313  and  _315
REMARK  125  A    between atoms: _315  and  _316
REMARK  126  A    between atoms: _315  and  _318
REMARK  127  A    between atoms: _318  and  _319
REMARK  128  A    between atoms: _324  and  _326
REMARK  129  A    between atoms: _326  and  _327
REMARK  130  A    between atoms: _326  and  _329
REMARK  131  A    between atoms: _329  and  _330
REMARK  132  A    between atoms: _333  and  _335
REMARK  133  A    between atoms: _335  and  _336
REMARK  134  A    between atoms: _335  and  _338
REMARK  135  A    between atoms: _338  and  _339
REMARK  136  A    between atoms: _342  and  _344
REMARK  137  A    between atoms: _344  and  _345
REMARK  138  A    between atoms: _344  and  _347
REMARK  139  A    between atoms: _347  and  _348
REMARK  140  A    between atoms: _348  and  _349
REMARK  141  A    between atoms: _354  and  _356
REMARK  142  A    between atoms: _356  and  _357
REMARK  143  A    between atoms: _356  and  _359
REMARK  144  A    between atoms: _359  and  _360
REMARK  145  A    between atoms: _363  and  _365
REMARK  146  A    between atoms: _365  and  _366
REMARK  147  A    between atoms: _365  and  _368
REMARK  148  A    between atoms: _371  and  _373
REMARK  149  A    between atoms: _373  and  _374
REMARK  150  A    between atoms: _373  and  _376
REMARK  151  A    between atoms: _376  and  _377
REMARK  152  A    between atoms: _382  and  _383
REMARK  153  A    between atoms: _385  and  _387
REMARK  154  A    between atoms: _387  and  _388
REMARK  155  A    between atoms: _387  and  _390
REMARK  156  A    between atoms: _390  and  _391
REMARK  157  A    between atoms: _391  and  _392
REMARK  158  A    between atoms: _395  and  _397
REMARK  159  A    between atoms: _397  and  _398
REMARK  160  A    between atoms: _397  and  _400
REMARK  161  A    between atoms: _400  and  _401
REMARK  162  A    between atoms: _401  and  _402
REMARK  163  A    between atoms: _407  and  _409
REMARK  164  A    between atoms: _409  and  _410
REMARK  165  A    between atoms: _409  and  _412
REMARK  166  A    between atoms: _412  and  _413
REMARK  167  A    between atoms: _413  and  _414
REMARK  168  A    between atoms: _414  and  _415
REMARK  169  A    between atoms: _424  and  _426
REMARK  170  A    between atoms: _426  and  _427
REMARK  171  A    between atoms: _426  and  _429
REMARK  172  A    between atoms: _429  and  _430
REMARK  173  A    between atoms: _430  and  _431
REMARK  174  A    between atoms: _431  and  _432
REMARK  175  A    between atoms: _441  and  _443
REMARK  176  A    between atoms: _443  and  _444
REMARK  177  A    between atoms: _443  and  _446
REMARK  178  A    between atoms: _446  and  _447
REMARK  179  A    between atoms: _450  and  _451
REMARK  180  A    between atoms: _456  and  _458
REMARK  181  A    between atoms: _458  and  _459
REMARK  182  A    between atoms: _458  and  _461
REMARK  183  A    between atoms: _461  and  _462
REMARK  184  A    between atoms: _465  and  _467
REMARK  185  A    between atoms: _467  and  _468
REMARK  186  A    between atoms: _471  and  _473
REMARK  187  A    between atoms: _473  and  _474
REMARK  188  A    between atoms: _473  and  _476
REMARK  189  A    between atoms: _479  and  _481
REMARK  190  A    between atoms: _481  and  _482
REMARK  191  A    between atoms: _481  and  _484
REMARK  192  A    between atoms: _484  and  _485
REMARK  193  A    between atoms: _485  and  _486
REMARK  194  A    between atoms: _488  and  _490
REMARK  195  A    between atoms: _490  and  _491
REMARK  196  A    between atoms: _490  and  _493
REMARK  197  A    between atoms: _493  and  _494
REMARK  198  A    between atoms: _500  and  _502
REMARK  199  A    between atoms: _502  and  _503
REMARK  200  A    between atoms: _502  and  _505
REMARK  201  A    between atoms: _505  and  _506
REMARK  202  A    between atoms: _510  and  _511
REMARK  203  A    between atoms: _516  and  _518
REMARK  204  A    between atoms: _518  and  _519
REMARK  205  A    between atoms: _522  and  _524
REMARK  206  A    between atoms: _524  and  _525
REMARK  207  A    between atoms: _524  and  _527
REMARK  208  A    between atoms: _527  and  _528
REMARK  209  A    between atoms: _531  and  _533
REMARK  210  A    between atoms: _533  and  _534
REMARK  211  A    between atoms: _533  and  _536
REMARK  212  A    between atoms: _536  and  _537
REMARK  213  A    between atoms: _539  and  _541
REMARK  214  A    between atoms: _541  and  _542
REMARK  215  A    between atoms: _541  and  _544
REMARK  216  A    between atoms: _544  and  _545
REMARK  217  A    between atoms: _547  and  _549
REMARK  218  A    between atoms: _549  and  _550
REMARK  219  A    between atoms: _549  and  _552
REMARK  220  A    between atoms: _552  and  _553
REMARK  221  A    between atoms: _558  and  _559
REMARK  222  A    between atoms: _561  and  _563
REMARK  223  A    between atoms: _563  and  _564
REMARK  224  A    between atoms: _563  and  _566
REMARK  225  A    between atoms: _566  and  _567
REMARK  226  A    between atoms: _572  and  _573
REMARK  227  A    between atoms: _575  and  _577
REMARK  228  A    between atoms: _577  and  _578
REMARK                            x       y       z     vdW  Elec       q    Type
REMARK                         _______ _______ _______ _____ _____    ______ ____
ROOT
ATOM      1  O   HOH     1      -7.600  -6.966 -14.151  0.00  0.00    +0.000 OA
ENDROOT
TORSDOF 0
REMARK  Name = ../refined-set-2016/2byr/2byr_pocket.pdb
REMARK  228 active torsions:
REMARK  status: ('A' for Active; 'I' for Inactive)
REMARK    1  A    between atoms: _1  and  _3
REMARK    2  A    between atoms: _3  and  _4
REMARK    3  A    between atoms: _3  and  _6
REMARK    4  A    between atoms: _6  and  _7
REMARK    5  A    between atoms: _10  and  _12
REMARK    6  A    between atoms: _12  and  _13
REMARK    7  A    between atoms: _12  and  _15
REMARK    8  A    between atoms: _15  and  _16
REMARK    9  A    between atoms: _19  and  _21
REMARK   10  A    between atoms: _21  and  _22
REMARK   11  A    between atoms: _25  and  _27
REMARK   12  A    between atoms: _27  and  _28
REMARK   13  A    between atoms: _27  and  _30
REMARK   14  A    between atoms: _30  and  _31
REMARK   15  A    between atoms: _36  and  _37
REMARK   16  A    between atoms: _39  and  _41
REMARK   17  A    between atoms: _41  and  _42
REMARK   18  A    between atoms: _41  and  _44
REMARK   19  A    between atoms: _44  and  _45
REMARK   20  A    between atoms: _47  and  _49
REMARK   21  A    between atoms: _49  and  _50
REMARK   22  A    between atoms: _49  and  _52
REMARK   23  A    between atoms: _52  and  _53
REMARK   24  A    between atoms: _55  and  _57
REMARK   25  A    between atoms: _57  and  _58
REMARK   26  A    between atoms: _57  and  _60
REMARK   27  A    between atoms: _60  and  _61
REMARK   28  A    between atoms: _61  and  _62
REMARK   29  A    between atoms: _64  and  _66
REMARK   30  A    between atoms: _66  and  _67
REMARK   31  A    between atoms: _70  and  _72
REMARK   32  A    between atoms: _72  and  _73
REMARK   33  A    between atoms: _72  and  _75
REMARK   34  A    between atoms: _78  and  _80
REMARK   35  A    between atoms: _80  and  _81
REMARK   36  A    between atoms: _80  and  _83
REMARK   37  A    between atoms: _83  and  _84
REMARK   38  A    between atoms: _84  and  _85
REMARK   39  A    between atoms: _85  and  _86
REMARK   40  A    between atoms: _86  and  _87
REMARK   41  A    between atoms: _91  and  _93
REMARK   42  A    between atoms: _93  and  _94
REMARK   43  A    between atoms: _93  and  _96
REMARK   44  A    between atoms: _96  and  _97
REMARK   45  A    between atoms: _103  and  _105
REMARK   46  A    between atoms: _105  and  _106
REMARK   47  A    between atoms: _108  and  _110
REMARK   48  A    between atoms: _110  and  _111
REMARK   49  A    between atoms: _110  and  _113
REMARK   50  A    between atoms: _113  and  _114
REMARK   51  A    between atoms: _116  and  _118
REMARK   52  A    between atoms: _118  and  _119
REMARK   53  A    between atoms: _118  and  _121
REMARK   54  A    between atoms: _121  and  _122
REMARK   55  A    between atoms: _132  and  _134
REMARK   56  A    between atoms: _134  and  _135
REMARK   57  A    between atoms: _134  and  _137
REMARK   58  A    between atoms: _140  and  _142
REMARK   59  A    between atoms: _142  and  _143
REMARK   60  A    between atoms: _142  and  _145
REMARK   61  A    between atoms: _145  and  _146
REMARK   62  A    between atoms: _151  and  _152
REMARK   63  A    between atoms: _154  and  _156
REMARK   64  A    between atoms: _156  and  _157
REMARK   65  A    between atoms: _156  and  _159
REMARK   66  A    between atoms: _159  and  _160
REMARK   67  A    between atoms: _162  and  _164
REMARK   68  A    between atoms: _164  and  _165
REMARK   69  A    between atoms: _167  and  _169
REMARK   70  A    between atoms: _169  and  _170
REMARK   71  A    between atoms: _169  and  _172
REMARK   72  A    between atoms: _172  and  _173
REMARK   73  A    between atoms: _173  and  _174
REMARK   74  A    between atoms: _177  and  _179
REMARK   75  A    between atoms: _179  and  _180
REMARK   76  A    between atoms: _179  and  _182
REMARK   77  A    between atoms: _182  and  _183
REMARK   78  A    between atoms: _183  and  _184
REMARK   79  A    between atoms: _189  and  _191
REMARK   80  A    between atoms: _191  and  _192
REMARK   81  A    between atoms: _191  and  _194
REMARK   82  A    between atoms: _197  and  _199
REMARK   83  A    between atoms: _199  and  _200
REMARK   84  A    between atoms: _199  and  _202
REMARK   85  A    between atoms: _202  and  _203
REMARK   86  A    between atoms: _203  and  _204
REMARK   87  A    between atoms: _209  and  _211
REMARK   88  A    between atoms: _211  and  _212
REMARK   89  A    between atoms: _211  and  _214
REMARK   90  A    between atoms: _214  and  _215
REMARK   91  A    between atoms: _220  and  _222
REMARK   92  A    between atoms: _222  and  _223
REMARK   93  A    between atoms: _222  and  _225
REMARK   94  A    between atoms: _225  and  _226
REMARK   95  A    between atoms: _231  and  _232
REMARK   96  A    between atoms: _234  and  _236
REMARK   97  A    between atoms: _236  and  _237
REMARK   98  A    between atoms: _236  and  _239
REMARK   99  A    between atoms: _239  and  _240
REMARK  100  A    between atoms: _242  and  _244
REMARK  101  A    between atoms: _251  and  _252
REMARK  102  A    between atoms: _256  and  _258
REMARK  103  A    between atoms: _258  and  _259
REMARK  104  A    between atoms: _258  and  _261
REMARK  105  A    between atoms: _261  and  _262
REMARK  106  A    between atoms: _262  and  _263
REMARK  107  A    between atoms: _267  and  _268
REMARK  108  A    between atoms: _273  and  _275
REMARK  109  A    between atoms: _275  and  _276
REMARK  110  A    between atoms: _275  and  _278
REMARK  111  A    between atoms: _278  and  _279
REMARK  112  A    between atoms: _284  and  _285
REMARK  113  A    between atoms: _287  and  _289
REMARK  114  A    between atoms: _289  and  _290
REMARK  115  A    between atoms: _289  and  _292
REMARK  116  A    between atoms: _292  and  _293
REMARK  117  A    between atoms: _296  and  _298
REMARK  118  A    between atoms: _298  and  _299
REMARK  119  A    between atoms: _298  and  _301
REMARK  120  A    between atoms: _301  and  _302
REMARK  121  A    between atoms: _305  and  _307
REMARK  122  A    between atoms: _307  and  _308
REMARK  123  A    between atoms: _307  and  _310
REMARK  124  A    between atoms: _313  and  _315
REMARK  125  A    between atoms: _315  and  _316
REMARK  126  A    between atoms: _315  and  _318
REMARK  127  A    between atoms: _318  and  _319
REMARK  128  A    between atoms: _324  and  _326
REMARK  129  A    between atoms: _326  and  _327
REMARK  130  A    between atoms: _326  and  _329
REMARK  131  A    between atoms: _329  and  _330
REMARK  132  A    between atoms: _333  and  _335
REMARK  133  A    between atoms: _335  and  _336
REMARK  134  A    between atoms: _335  and  _338
REMARK  135  A    between atoms: _338  and  _339
REMARK  136  A    between atoms: _342  and  _344
REMARK  137  A    between atoms: _344  and  _345
REMARK  138  A    between atoms: _344  and  _347
REMARK  139  A    between atoms: _347  and  _348
REMARK  140  A    between atoms: _348  and  _349
REMARK  141  A    between atoms: _354  and  _356
REMARK  142  A    between atoms: _356  and  _357
REMARK  143  A    between atoms: _356  and  _359
REMARK  144  A    between atoms: _359  and  _360
REMARK  145  A    between atoms: _363  and  _365
REMARK  146  A    between atoms: _365  and  _366
REMARK  147  A    between atoms: _365  and  _368
REMARK  148  A    between atoms: _371  and  _373
REMARK  149  A    between atoms: _373  and  _374
REMARK  150  A    between atoms: _373  and  _376
REMARK  151  A    between atoms: _376  and  _377
REMARK  152  A    between atoms: _382  and  _383
REMARK  153  A    between atoms: _385  and  _387
REMARK  154  A    between atoms: _387  and  _388
REMARK  155  A    between atoms: _387  and  _390
REMARK  156  A    between atoms: _390  and  _391
REMARK  157  A    between atoms: _391  and  _392
REMARK  158  A    between atoms: _395  and  _397
REMARK  159  A    between atoms: _397  and  _398
REMARK  160  A    between atoms: _397  and  _400
REMARK  161  A    between atoms: _400  and  _401
REMARK  162  A    between atoms: _401  and  _402
REMARK  163  A    between atoms: _407  and  _409
REMARK  164  A    between atoms: _409  and  _410
REMARK  165  A    between atoms: _409  and  _412
REMARK  166  A    between atoms: _412  and  _413
REMARK  167  A    between atoms: _413  and  _414
REMARK  168  A    between atoms: _414  and  _415
REMARK  169  A    between atoms: _424  and  _426
REMARK  170  A    between atoms: _426  and  _427
REMARK  171  A    between atoms: _426  and  _429
REMARK  172  A    between atoms: _429  and  _430
REMARK  173  A    between atoms: _430  and  _431
REMARK  174  A    between atoms: _431  and  _432
REMARK  175  A    between atoms: _441  and  _443
REMARK  176  A    between atoms: _443  and  _444
REMARK  177  A    between atoms: _443  and  _446
REMARK  178  A    between atoms: _446  and  _447
REMARK  179  A    between atoms: _450  and  _451
REMARK  180  A    between atoms: _456  and  _458
REMARK  181  A    between atoms: _458  and  _459
REMARK  182  A    between atoms: _458  and  _461
REMARK  183  A    between atoms: _461  and  _462
REMARK  184  A    between atoms: _465  and  _467
REMARK  185  A    between atoms: _467  and  _468
REMARK  186  A    between atoms: _471  and  _473
REMARK  187  A    between atoms: _473  and  _474
REMARK  188  A    between atoms: _473  and  _476
REMARK  189  A    between atoms: _479  and  _481
REMARK  190  A    between atoms: _481  and  _482
REMARK  191  A    between atoms: _481  and  _484
REMARK  192  A    between atoms: _484  and  _485
REMARK  193  A    between atoms: _485  and  _486
REMARK  194  A    between atoms: _488  and  _490
REMARK  195  A    between atoms: _490  and  _491
REMARK  196  A    between atoms: _490  and  _493
REMARK  197  A    between atoms: _493  and  _494
REMARK  198  A    between atoms: _500  and  _502
REMARK  199  A    between atoms: _502  and  _503
REMARK  200  A    between atoms: _502  and  _505
REMARK  201  A    between atoms: _505  and  _506
REMARK  202  A    between atoms: _510  and  _511
REMARK  203  A    between atoms: _516  and  _518
REMARK  204  A    between atoms: _518  and  _519
REMARK  205  A    between atoms: _522  and  _524
REMARK  206  A    between atoms: _524  and  _525
REMARK  207  A    between atoms: _524  and  _527
REMARK  208  A    between atoms: _527  and  _528
REMARK  209  A    between atoms: _531  and  _533
REMARK  210  A    between atoms: _533  and  _534
REMARK  211  A    between atoms: _533  and  _536
REMARK  212  A    between atoms: _536  and  _537
REMARK  213  A    between atoms: _539  and  _541
REMARK  214  A    between atoms: _541  and  _542
REMARK  215  A    between atoms: _541  and  _544
REMARK  216  A    between atoms: _544  and  _545
REMARK  217  A    between atoms: _547  and  _549
REMARK  218  A    between atoms: _549  and  _550
REMARK  219  A    between atoms: _549  and  _552
REMARK  220  A    between atoms: _552  and  _553
REMARK  221  A    between atoms: _558  and  _559
REMARK  222  A    between atoms: _561  and  _563
REMARK  223  A    between atoms: _563  and  _564
REMARK  224  A    between atoms: _563  and  _566
REMARK  225  A    between atoms: _566  and  _567
REMARK  226  A    between atoms: _572  and  _573
REMARK  227  A    between atoms: _575  and  _577
REMARK  228  A    between atoms: _577  and  _578
REMARK                            x       y       z     vdW  Elec       q    Type
REMARK                         _______ _______ _______ _____ _____    ______ ____
ROOT
ATOM      1  O   HOH     1       0.609  -2.457  -4.115  0.00  0.00    +0.000 OA
ENDROOT
TORSDOF 0
REMARK  Name = ../refined-set-2016/2byr/2byr_pocket.pdb
REMARK  228 active torsions:
REMARK  status: ('A' for Active; 'I' for Inactive)
REMARK    1  A    between atoms: _1  and  _3
REMARK    2  A    between atoms: _3  and  _4
REMARK    3  A    between atoms: _3  and  _6
REMARK    4  A    between atoms: _6  and  _7
REMARK    5  A    between atoms: _10  and  _12
REMARK    6  A    between atoms: _12  and  _13
REMARK    7  A    between atoms: _12  and  _15
REMARK    8  A    between atoms: _15  and  _16
REMARK    9  A    between atoms: _19  and  _21
REMARK   10  A    between atoms: _21  and  _22
REMARK   11  A    between atoms: _25  and  _27
REMARK   12  A    between atoms: _27  and  _28
REMARK   13  A    between atoms: _27  and  _30
REMARK   14  A    between atoms: _30  and  _31
REMARK   15  A    between atoms: _36  and  _37
REMARK   16  A    between atoms: _39  and  _41
REMARK   17  A    between atoms: _41  and  _42
REMARK   18  A    between atoms: _41  and  _44
REMARK   19  A    between atoms: _44  and  _45
REMARK   20  A    between atoms: _47  and  _49
REMARK   21  A    between atoms: _49  and  _50
REMARK   22  A    between atoms: _49  and  _52
REMARK   23  A    between atoms: _52  and  _53
REMARK   24  A    between atoms: _55  and  _57
REMARK   25  A    between atoms: _57  and  _58
REMARK   26  A    between atoms: _57  and  _60
REMARK   27  A    between atoms: _60  and  _61
REMARK   28  A    between atoms: _61  and  _62
REMARK   29  A    between atoms: _64  and  _66
REMARK   30  A    between atoms: _66  and  _67
REMARK   31  A    between atoms: _70  and  _72
REMARK   32  A    between atoms: _72  and  _73
REMARK   33  A    between atoms: _72  and  _75
REMARK   34  A    between atoms: _78  and  _80
REMARK   35  A    between atoms: _80  and  _81
REMARK   36  A    between atoms: _80  and  _83
REMARK   37  A    between atoms: _83  and  _84
REMARK   38  A    between atoms: _84  and  _85
REMARK   39  A    between atoms: _85  and  _86
REMARK   40  A    between atoms: _86  and  _87
REMARK   41  A    between atoms: _91  and  _93
REMARK   42  A    between atoms: _93  and  _94
REMARK   43  A    between atoms: _93  and  _96
REMARK   44  A    between atoms: _96  and  _97
REMARK   45  A    between atoms: _103  and  _105
REMARK   46  A    between atoms: _105  and  _106
REMARK   47  A    between atoms: _108  and  _110
REMARK   48  A    between atoms: _110  and  _111
REMARK   49  A    between atoms: _110  and  _113
REMARK   50  A    between atoms: _113  and  _114
REMARK   51  A    between atoms: _116  and  _118
REMARK   52  A    between atoms: _118  and  _119
REMARK   53  A    between atoms: _118  and  _121
REMARK   54  A    between atoms: _121  and  _122
REMARK   55  A    between atoms: _132  and  _134
REMARK   56  A    between atoms: _134  and  _135
REMARK   57  A    between atoms: _134  and  _137
REMARK   58  A    between atoms: _140  and  _142
REMARK   59  A    between atoms: _142  and  _143
REMARK   60  A    between atoms: _142  and  _145
REMARK   61  A    between atoms: _145  and  _146
REMARK   62  A    between atoms: _151  and  _152
REMARK   63  A    between atoms: _154  and  _156
REMARK   64  A    between atoms: _156  and  _157
REMARK   65  A    between atoms: _156  and  _159
REMARK   66  A    between atoms: _159  and  _160
REMARK   67  A    between atoms: _162  and  _164
REMARK   68  A    between atoms: _164  and  _165
REMARK   69  A    between atoms: _167  and  _169
REMARK   70  A    between atoms: _169  and  _170
REMARK   71  A    between atoms: _169  and  _172
REMARK   72  A    between atoms: _172  and  _173
REMARK   73  A    between atoms: _173  and  _174
REMARK   74  A    between atoms: _177  and  _179
REMARK   75  A    between atoms: _179  and  _180
REMARK   76  A    between atoms: _179  and  _182
REMARK   77  A    between atoms: _182  and  _183
REMARK   78  A    between atoms: _183  and  _184
REMARK   79  A    between atoms: _189  and  _191
REMARK   80  A    between atoms: _191  and  _192
REMARK   81  A    between atoms: _191  and  _194
REMARK   82  A    between atoms: _197  and  _199
REMARK   83  A    between atoms: _199  and  _200
REMARK   84  A    between atoms: _199  and  _202
REMARK   85  A    between atoms: _202  and  _203
REMARK   86  A    between atoms: _203  and  _204
REMARK   87  A    between atoms: _209  and  _211
REMARK   88  A    between atoms: _211  and  _212
REMARK   89  A    between atoms: _211  and  _214
REMARK   90  A    between atoms: _214  and  _215
REMARK   91  A    between atoms: _220  and  _222
REMARK   92  A    between atoms: _222  and  _223
REMARK   93  A    between atoms: _222  and  _225
REMARK   94  A    between atoms: _225  and  _226
REMARK   95  A    between atoms: _231  and  _232
REMARK   96  A    between atoms: _234  and  _236
REMARK   97  A    between atoms: _236  and  _237
REMARK   98  A    between atoms: _236  and  _239
REMARK   99  A    between atoms: _239  and  _240
REMARK  100  A    between atoms: _242  and  _244
REMARK  101  A    between atoms: _251  and  _252
REMARK  102  A    between atoms: _256  and  _258
REMARK  103  A    between atoms: _258  and  _259
REMARK  104  A    between atoms: _258  and  _261
REMARK  105  A    between atoms: _261  and  _262
REMARK  106  A    between atoms: _262  and  _263
REMARK  107  A    between atoms: _267  and  _268
REMARK  108  A    between atoms: _273  and  _275
REMARK  109  A    between atoms: _275  and  _276
REMARK  110  A    between atoms: _275  and  _278
REMARK  111  A    between atoms: _278  and  _279
REMARK  112  A    between atoms: _284  and  _285
REMARK  113  A    between atoms: _287  and  _289
REMARK  114  A    between atoms: _289  and  _290
REMARK  115  A    between atoms: _289  and  _292
REMARK  116  A    between atoms: _292  and  _293
REMARK  117  A    between atoms: _296  and  _298
REMARK  118  A    between atoms: _298  and  _299
REMARK  119  A    between atoms: _298  and  _301
REMARK  120  A    between atoms: _301  and  _302
REMARK  121  A    between atoms: _305  and  _307
REMARK  122  A    between atoms: _307  and  _308
REMARK  123  A    between atoms: _307  and  _310
REMARK  124  A    between atoms: _313  and  _315
REMARK  125  A    between atoms: _315  and  _316
REMARK  126  A    between atoms: _315  and  _318
REMARK  127  A    between atoms: _318  and  _319
REMARK  128  A    between atoms: _324  and  _326
REMARK  129  A    between atoms: _326  and  _327
REMARK  130  A    between atoms: _326  and  _329
REMARK  131  A    between atoms: _329  and  _330
REMARK  132  A    between atoms: _333  and  _335
REMARK  133  A    between atoms: _335  and  _336
REMARK  134  A    between atoms: _335  and  _338
REMARK  135  A    between atoms: _338  and  _339
REMARK  136  A    between atoms: _342  and  _344
REMARK  137  A    between atoms: _344  and  _345
REMARK  138  A    between atoms: _344  and  _347
REMARK  139  A    between atoms: _347  and  _348
REMARK  140  A    between atoms: _348  and  _349
REMARK  141  A    between atoms: _354  and  _356
REMARK  142  A    between atoms: _356  and  _357
REMARK  143  A    between atoms: _356  and  _359
REMARK  144  A    between atoms: _359  and  _360
REMARK  145  A    between atoms: _363  and  _365
REMARK  146  A    between atoms: _365  and  _366
REMARK  147  A    between atoms: _365  and  _368
REMARK  148  A    between atoms: _371  and  _373
REMARK  149  A    between atoms: _373  and  _374
REMARK  150  A    between atoms: _373  and  _376
REMARK  151  A    between atoms: _376  and  _377
REMARK  152  A    between atoms: _382  and  _383
REMARK  153  A    between atoms: _385  and  _387
REMARK  154  A    between atoms: _387  and  _388
REMARK  155  A    between atoms: _387  and  _390
REMARK  156  A    between atoms: _390  and  _391
REMARK  157  A    between atoms: _391  and  _392
REMARK  158  A    between atoms: _395  and  _397
REMARK  159  A    between atoms: _397  and  _398
REMARK  160  A    between atoms: _397  and  _400
REMARK  161  A    between atoms: _400  and  _401
REMARK  162  A    between atoms: _401  and  _402
REMARK  163  A    between atoms: _407  and  _409
REMARK  164  A    between atoms: _409  and  _410
REMARK  165  A    between atoms: _409  and  _412
REMARK  166  A    between atoms: _412  and  _413
REMARK  167  A    between atoms: _413  and  _414
REMARK  168  A    between atoms: _414  and  _415
REMARK  169  A    between atoms: _424  and  _426
REMARK  170  A    between atoms: _426  and  _427
REMARK  171  A    between atoms: _426  and  _429
REMARK  172  A    between atoms: _429  and  _430
REMARK  173  A    between atoms: _430  and  _431
REMARK  174  A    between atoms: _431  and  _432
REMARK  175  A    between atoms: _441  and  _443
REMARK  176  A    between atoms: _443  and  _444
REMARK  177  A    between atoms: _443  and  _446
REMARK  178  A    between atoms: _446  and  _447
REMARK  179  A    between atoms: _450  and  _451
REMARK  180  A    between atoms: _456  and  _458
REMARK  181  A    between atoms: _458  and  _459
REMARK  182  A    between atoms: _458  and  _461
REMARK  183  A    between atoms: _461  and  _462
REMARK  184  A    between atoms: _465  and  _467
REMARK  185  A    between atoms: _467  and  _468
REMARK  186  A    between atoms: _471  and  _473
REMARK  187  A    between atoms: _473  and  _474
REMARK  188  A    between atoms: _473  and  _476
REMARK  189  A    between atoms: _479  and  _481
REMARK  190  A    between atoms: _481  and  _482
REMARK  191  A    between atoms: _481  and  _484
REMARK  192  A    between atoms: _484  and  _485
REMARK  193  A    between atoms: _485  and  _486
REMARK  194  A    between atoms: _488  and  _490
REMARK  195  A    between atoms: _490  and  _491
REMARK  196  A    between atoms: _490  and  _493
REMARK  197  A    between atoms: _493  and  _494
REMARK  198  A    between atoms: _500  and  _502
REMARK  199  A    between atoms: _502  and  _503
REMARK  200  A    between atoms: _502  and  _505
REMARK  201  A    between atoms: _505  and  _506
REMARK  202  A    between atoms: _510  and  _511
REMARK  203  A    between atoms: _516  and  _518
REMARK  204  A    between atoms: _518  and  _519
REMARK  205  A    between atoms: _522  and  _524
REMARK  206  A    between atoms: _524  and  _525
REMARK  207  A    between atoms: _524  and  _527
REMARK  208  A    between atoms: _527  and  _528
REMARK  209  A    between atoms: _531  and  _533
REMARK  210  A    between atoms: _533  and  _534
REMARK  211  A    between atoms: _533  and  _536
REMARK  212  A    between atoms: _536  and  _537
REMARK  213  A    between atoms: _539  and  _541
REMARK  214  A    between atoms: _541  and  _542
REMARK  215  A    between atoms: _541  and  _544
REMARK  216  A    between atoms: _544  and  _545
REMARK  217  A    between atoms: _547  and  _549
REMARK  218  A    between atoms: _549  and  _550
REMARK  219  A    between atoms: _549  and  _552
REMARK  220  A    between atoms: _552  and  _553
REMARK  221  A    between atoms: _558  and  _559
REMARK  222  A    between atoms: _561  and  _563
REMARK  223  A    between atoms: _563  and  _564
REMARK  224  A    between atoms: _563  and  _566
REMARK  225  A    between atoms: _566  and  _567
REMARK  226  A    between atoms: _572  and  _573
REMARK  227  A    between atoms: _575  and  _577
REMARK  228  A    between atoms: _577  and  _578
REMARK                            x       y       z     vdW  Elec       q    Type
REMARK                         _______ _______ _______ _____ _____    ______ ____
ROOT
ATOM      1  O   HOH     1      -1.921  -0.053  -8.000  0.00  0.00    +0.000 OA
ENDROOT
TORSDOF 0
REMARK  Name = ../refined-set-2016/2byr/2byr_pocket.pdb
REMARK  228 active torsions:
REMARK  status: ('A' for Active; 'I' for Inactive)
REMARK    1  A    between atoms: _1  and  _3
REMARK    2  A    between atoms: _3  and  _4
REMARK    3  A    between atoms: _3  and  _6
REMARK    4  A    between atoms: _6  and  _7
REMARK    5  A    between atoms: _10  and  _12
REMARK    6  A    between atoms: _12  and  _13
REMARK    7  A    between atoms: _12  and  _15
REMARK    8  A    between atoms: _15  and  _16
REMARK    9  A    between atoms: _19  and  _21
REMARK   10  A    between atoms: _21  and  _22
REMARK   11  A    between atoms: _25  and  _27
REMARK   12  A    between atoms: _27  and  _28
REMARK   13  A    between atoms: _27  and  _30
REMARK   14  A    between atoms: _30  and  _31
REMARK   15  A    between atoms: _36  and  _37
REMARK   16  A    between atoms: _39  and  _41
REMARK   17  A    between atoms: _41  and  _42
REMARK   18  A    between atoms: _41  and  _44
REMARK   19  A    between atoms: _44  and  _45
REMARK   20  A    between atoms: _47  and  _49
REMARK   21  A    between atoms: _49  and  _50
REMARK   22  A    between atoms: _49  and  _52
REMARK   23  A    between atoms: _52  and  _53
REMARK   24  A    between atoms: _55  and  _57
REMARK   25  A    between atoms: _57  and  _58
REMARK   26  A    between atoms: _57  and  _60
REMARK   27  A    between atoms: _60  and  _61
REMARK   28  A    between atoms: _61  and  _62
REMARK   29  A    between atoms: _64  and  _66
REMARK   30  A    between atoms: _66  and  _67
REMARK   31  A    between atoms: _70  and  _72
REMARK   32  A    between atoms: _72  and  _73
REMARK   33  A    between atoms: _72  and  _75
REMARK   34  A    between atoms: _78  and  _80
REMARK   35  A    between atoms: _80  and  _81
REMARK   36  A    between atoms: _80  and  _83
REMARK   37  A    between atoms: _83  and  _84
REMARK   38  A    between atoms: _84  and  _85
REMARK   39  A    between atoms: _85  and  _86
REMARK   40  A    between atoms: _86  and  _87
REMARK   41  A    between atoms: _91  and  _93
REMARK   42  A    between atoms: _93  and  _94
REMARK   43  A    between atoms: _93  and  _96
REMARK   44  A    between atoms: _96  and  _97
REMARK   45  A    between atoms: _103  and  _105
REMARK   46  A    between atoms: _105  and  _106
REMARK   47  A    between atoms: _108  and  _110
REMARK   48  A    between atoms: _110  and  _111
REMARK   49  A    between atoms: _110  and  _113
REMARK   50  A    between atoms: _113  and  _114
REMARK   51  A    between atoms: _116  and  _118
REMARK   52  A    between atoms: _118  and  _119
REMARK   53  A    between atoms: _118  and  _121
REMARK   54  A    between atoms: _121  and  _122
REMARK   55  A    between atoms: _132  and  _134
REMARK   56  A    between atoms: _134  and  _135
REMARK   57  A    between atoms: _134  and  _137
REMARK   58  A    between atoms: _140  and  _142
REMARK   59  A    between atoms: _142  and  _143
REMARK   60  A    between atoms: _142  and  _145
REMARK   61  A    between atoms: _145  and  _146
REMARK   62  A    between atoms: _151  and  _152
REMARK   63  A    between atoms: _154  and  _156
REMARK   64  A    between atoms: _156  and  _157
REMARK   65  A    between atoms: _156  and  _159
REMARK   66  A    between atoms: _159  and  _160
REMARK   67  A    between atoms: _162  and  _164
REMARK   68  A    between atoms: _164  and  _165
REMARK   69  A    between atoms: _167  and  _169
REMARK   70  A    between atoms: _169  and  _170
REMARK   71  A    between atoms: _169  and  _172
REMARK   72  A    between atoms: _172  and  _173
REMARK   73  A    between atoms: _173  and  _174
REMARK   74  A    between atoms: _177  and  _179
REMARK   75  A    between atoms: _179  and  _180
REMARK   76  A    between atoms: _179  and  _182
REMARK   77  A    between atoms: _182  and  _183
REMARK   78  A    between atoms: _183  and  _184
REMARK   79  A    between atoms: _189  and  _191
REMARK   80  A    between atoms: _191  and  _192
REMARK   81  A    between atoms: _191  and  _194
REMARK   82  A    between atoms: _197  and  _199
REMARK   83  A    between atoms: _199  and  _200
REMARK   84  A    between atoms: _199  and  _202
REMARK   85  A    between atoms: _202  and  _203
REMARK   86  A    between atoms: _203  and  _204
REMARK   87  A    between atoms: _209  and  _211
REMARK   88  A    between atoms: _211  and  _212
REMARK   89  A    between atoms: _211  and  _214
REMARK   90  A    between atoms: _214  and  _215
REMARK   91  A    between atoms: _220  and  _222
REMARK   92  A    between atoms: _222  and  _223
REMARK   93  A    between atoms: _222  and  _225
REMARK   94  A    between atoms: _225  and  _226
REMARK   95  A    between atoms: _231  and  _232
REMARK   96  A    between atoms: _234  and  _236
REMARK   97  A    between atoms: _236  and  _237
REMARK   98  A    between atoms: _236  and  _239
REMARK   99  A    between atoms: _239  and  _240
REMARK  100  A    between atoms: _242  and  _244
REMARK  101  A    between atoms: _251  and  _252
REMARK  102  A    between atoms: _256  and  _258
REMARK  103  A    between atoms: _258  and  _259
REMARK  104  A    between atoms: _258  and  _261
REMARK  105  A    between atoms: _261  and  _262
REMARK  106  A    between atoms: _262  and  _263
REMARK  107  A    between atoms: _267  and  _268
REMARK  108  A    between atoms: _273  and  _275
REMARK  109  A    between atoms: _275  and  _276
REMARK  110  A    between atoms: _275  and  _278
REMARK  111  A    between atoms: _278  and  _279
REMARK  112  A    between atoms: _284  and  _285
REMARK  113  A    between atoms: _287  and  _289
REMARK  114  A    between atoms: _289  and  _290
REMARK  115  A    between atoms: _289  and  _292
REMARK  116  A    between atoms: _292  and  _293
REMARK  117  A    between atoms: _296  and  _298
REMARK  118  A    between atoms: _298  and  _299
REMARK  119  A    between atoms: _298  and  _301
REMARK  120  A    between atoms: _301  and  _302
REMARK  121  A    between atoms: _305  and  _307
REMARK  122  A    between atoms: _307  and  _308
REMARK  123  A    between atoms: _307  and  _310
REMARK  124  A    between atoms: _313  and  _315
REMARK  125  A    between atoms: _315  and  _316
REMARK  126  A    between atoms: _315  and  _318
REMARK  127  A    between atoms: _318  and  _319
REMARK  128  A    between atoms: _324  and  _326
REMARK  129  A    between atoms: _326  and  _327
REMARK  130  A    between atoms: _326  and  _329
REMARK  131  A    between atoms: _329  and  _330
REMARK  132  A    between atoms: _333  and  _335
REMARK  133  A    between atoms: _335  and  _336
REMARK  134  A    between atoms: _335  and  _338
REMARK  135  A    between atoms: _338  and  _339
REMARK  136  A    between atoms: _342  and  _344
REMARK  137  A    between atoms: _344  and  _345
REMARK  138  A    between atoms: _344  and  _347
REMARK  139  A    between atoms: _347  and  _348
REMARK  140  A    between atoms: _348  and  _349
REMARK  141  A    between atoms: _354  and  _356
REMARK  142  A    between atoms: _356  and  _357
REMARK  143  A    between atoms: _356  and  _359
REMARK  144  A    between atoms: _359  and  _360
REMARK  145  A    between atoms: _363  and  _365
REMARK  146  A    between atoms: _365  and  _366
REMARK  147  A    between atoms: _365  and  _368
REMARK  148  A    between atoms: _371  and  _373
REMARK  149  A    between atoms: _373  and  _374
REMARK  150  A    between atoms: _373  and  _376
REMARK  151  A    between atoms: _376  and  _377
REMARK  152  A    between atoms: _382  and  _383
REMARK  153  A    between atoms: _385  and  _387
REMARK  154  A    between atoms: _387  and  _388
REMARK  155  A    between atoms: _387  and  _390
REMARK  156  A    between atoms: _390  and  _391
REMARK  157  A    between atoms: _391  and  _392
REMARK  158  A    between atoms: _395  and  _397
REMARK  159  A    between atoms: _397  and  _398
REMARK  160  A    between atoms: _397  and  _400
REMARK  161  A    between atoms: _400  and  _401
REMARK  162  A    between atoms: _401  and  _402
REMARK  163  A    between atoms: _407  and  _409
REMARK  164  A    between atoms: _409  and  _410
REMARK  165  A    between atoms: _409  and  _412
REMARK  166  A    between atoms: _412  and  _413
REMARK  167  A    between atoms: _413  and  _414
REMARK  168  A    between atoms: _414  and  _415
REMARK  169  A    between atoms: _424  and  _426
REMARK  170  A    between atoms: _426  and  _427
REMARK  171  A    between atoms: _426  and  _429
REMARK  172  A    between atoms: _429  and  _430
REMARK  173  A    between atoms: _430  and  _431
REMARK  174  A    between atoms: _431  and  _432
REMARK  175  A    between atoms: _441  and  _443
REMARK  176  A    between atoms: _443  and  _444
REMARK  177  A    between atoms: _443  and  _446
REMARK  178  A    between atoms: _446  and  _447
REMARK  179  A    between atoms: _450  and  _451
REMARK  180  A    between atoms: _456  and  _458
REMARK  181  A    between atoms: _458  and  _459
REMARK  182  A    between atoms: _458  and  _461
REMARK  183  A    between atoms: _461  and  _462
REMARK  184  A    between atoms: _465  and  _467
REMARK  185  A    between atoms: _467  and  _468
REMARK  186  A    between atoms: _471  and  _473
REMARK  187  A    between atoms: _473  and  _474
REMARK  188  A    between atoms: _473  and  _476
REMARK  189  A    between atoms: _479  and  _481
REMARK  190  A    between atoms: _481  and  _482
REMARK  191  A    between atoms: _481  and  _484
REMARK  192  A    between atoms: _484  and  _485
REMARK  193  A    between atoms: _485  and  _486
REMARK  194  A    between atoms: _488  and  _490
REMARK  195  A    between atoms: _490  and  _491
REMARK  196  A    between atoms: _490  and  _493
REMARK  197  A    between atoms: _493  and  _494
REMARK  198  A    between atoms: _500  and  _502
REMARK  199  A    between atoms: _502  and  _503
REMARK  200  A    between atoms: _502  and  _505
REMARK  201  A    between atoms: _505  and  _506
REMARK  202  A    between atoms: _510  and  _511
REMARK  203  A    between atoms: _516  and  _518
REMARK  204  A    between atoms: _518  and  _519
REMARK  205  A    between atoms: _522  and  _524
REMARK  206  A    between atoms: _524  and  _525
REMARK  207  A    between atoms: _524  and  _527
REMARK  208  A    between atoms: _527  and  _528
REMARK  209  A    between atoms: _531  and  _533
REMARK  210  A    between atoms: _533  and  _534
REMARK  211  A    between atoms: _533  and  _536
REMARK  212  A    between atoms: _536  and  _537
REMARK  213  A    between atoms: _539  and  _541
REMARK  214  A    between atoms: _541  and  _542
REMARK  215  A    between atoms: _541  and  _544
REMARK  216  A    between atoms: _544  and  _545
REMARK  217  A    between atoms: _547  and  _549
REMARK  218  A    between atoms: _549  and  _550
REMARK  219  A    between atoms: _549  and  _552
REMARK  220  A    between atoms: _552  and  _553
REMARK  221  A    between atoms: _558  and  _559
REMARK  222  A    between atoms: _561  and  _563
REMARK  223  A    between atoms: _563  and  _564
REMARK  224  A    between atoms: _563  and  _566
REMARK  225  A    between atoms: _566  and  _567
REMARK  226  A    between atoms: _572  and  _573
REMARK  227  A    between atoms: _575  and  _577
REMARK  228  A    between atoms: _577  and  _578
REMARK                            x       y       z     vdW  Elec       q    Type
REMARK                         _______ _______ _______ _____ _____    ______ ____
ROOT
ATOM      1  O   HOH     1      -1.121  -0.592  -5.477  0.00  0.00    +0.000 OA
ENDROOT
TORSDOF 0
REMARK  Name = ../refined-set-2016/2byr/2byr_pocket.pdb
REMARK  228 active torsions:
REMARK  status: ('A' for Active; 'I' for Inactive)
REMARK    1  A    between atoms: _1  and  _3
REMARK    2  A    between atoms: _3  and  _4
REMARK    3  A    between atoms: _3  and  _6
REMARK    4  A    between atoms: _6  and  _7
REMARK    5  A    between atoms: _10  and  _12
REMARK    6  A    between atoms: _12  and  _13
REMARK    7  A    between atoms: _12  and  _15
REMARK    8  A    between atoms: _15  and  _16
REMARK    9  A    between atoms: _19  and  _21
REMARK   10  A    between atoms: _21  and  _22
REMARK   11  A    between atoms: _25  and  _27
REMARK   12  A    between atoms: _27  and  _28
REMARK   13  A    between atoms: _27  and  _30
REMARK   14  A    between atoms: _30  and  _31
REMARK   15  A    between atoms: _36  and  _37
REMARK   16  A    between atoms: _39  and  _41
REMARK   17  A    between atoms: _41  and  _42
REMARK   18  A    between atoms: _41  and  _44
REMARK   19  A    between atoms: _44  and  _45
REMARK   20  A    between atoms: _47  and  _49
REMARK   21  A    between atoms: _49  and  _50
REMARK   22  A    between atoms: _49  and  _52
REMARK   23  A    between atoms: _52  and  _53
REMARK   24  A    between atoms: _55  and  _57
REMARK   25  A    between atoms: _57  and  _58
REMARK   26  A    between atoms: _57  and  _60
REMARK   27  A    between atoms: _60  and  _61
REMARK   28  A    between atoms: _61  and  _62
REMARK   29  A    between atoms: _64  and  _66
REMARK   30  A    between atoms: _66  and  _67
REMARK   31  A    between atoms: _70  and  _72
REMARK   32  A    between atoms: _72  and  _73
REMARK   33  A    between atoms: _72  and  _75
REMARK   34  A    between atoms: _78  and  _80
REMARK   35  A    between atoms: _80  and  _81
REMARK   36  A    between atoms: _80  and  _83
REMARK   37  A    between atoms: _83  and  _84
REMARK   38  A    between atoms: _84  and  _85
REMARK   39  A    between atoms: _85  and  _86
REMARK   40  A    between atoms: _86  and  _87
REMARK   41  A    between atoms: _91  and  _93
REMARK   42  A    between atoms: _93  and  _94
REMARK   43  A    between atoms: _93  and  _96
REMARK   44  A    between atoms: _96  and  _97
REMARK   45  A    between atoms: _103  and  _105
REMARK   46  A    between atoms: _105  and  _106
REMARK   47  A    between atoms: _108  and  _110
REMARK   48  A    between atoms: _110  and  _111
REMARK   49  A    between atoms: _110  and  _113
REMARK   50  A    between atoms: _113  and  _114
REMARK   51  A    between atoms: _116  and  _118
REMARK   52  A    between atoms: _118  and  _119
REMARK   53  A    between atoms: _118  and  _121
REMARK   54  A    between atoms: _121  and  _122
REMARK   55  A    between atoms: _132  and  _134
REMARK   56  A    between atoms: _134  and  _135
REMARK   57  A    between atoms: _134  and  _137
REMARK   58  A    between atoms: _140  and  _142
REMARK   59  A    between atoms: _142  and  _143
REMARK   60  A    between atoms: _142  and  _145
REMARK   61  A    between atoms: _145  and  _146
REMARK   62  A    between atoms: _151  and  _152
REMARK   63  A    between atoms: _154  and  _156
REMARK   64  A    between atoms: _156  and  _157
REMARK   65  A    between atoms: _156  and  _159
REMARK   66  A    between atoms: _159  and  _160
REMARK   67  A    between atoms: _162  and  _164
REMARK   68  A    between atoms: _164  and  _165
REMARK   69  A    between atoms: _167  and  _169
REMARK   70  A    between atoms: _169  and  _170
REMARK   71  A    between atoms: _169  and  _172
REMARK   72  A    between atoms: _172  and  _173
REMARK   73  A    between atoms: _173  and  _174
REMARK   74  A    between atoms: _177  and  _179
REMARK   75  A    between atoms: _179  and  _180
REMARK   76  A    between atoms: _179  and  _182
REMARK   77  A    between atoms: _182  and  _183
REMARK   78  A    between atoms: _183  and  _184
REMARK   79  A    between atoms: _189  and  _191
REMARK   80  A    between atoms: _191  and  _192
REMARK   81  A    between atoms: _191  and  _194
REMARK   82  A    between atoms: _197  and  _199
REMARK   83  A    between atoms: _199  and  _200
REMARK   84  A    between atoms: _199  and  _202
REMARK   85  A    between atoms: _202  and  _203
REMARK   86  A    between atoms: _203  and  _204
REMARK   87  A    between atoms: _209  and  _211
REMARK   88  A    between atoms: _211  and  _212
REMARK   89  A    between atoms: _211  and  _214
REMARK   90  A    between atoms: _214  and  _215
REMARK   91  A    between atoms: _220  and  _222
REMARK   92  A    between atoms: _222  and  _223
REMARK   93  A    between atoms: _222  and  _225
REMARK   94  A    between atoms: _225  and  _226
REMARK   95  A    between atoms: _231  and  _232
REMARK   96  A    between atoms: _234  and  _236
REMARK   97  A    between atoms: _236  and  _237
REMARK   98  A    between atoms: _236  and  _239
REMARK   99  A    between atoms: _239  and  _240
REMARK  100  A    between atoms: _242  and  _244
REMARK  101  A    between atoms: _251  and  _252
REMARK  102  A    between atoms: _256  and  _258
REMARK  103  A    between atoms: _258  and  _259
REMARK  104  A    between atoms: _258  and  _261
REMARK  105  A    between atoms: _261  and  _262
REMARK  106  A    between atoms: _262  and  _263
REMARK  107  A    between atoms: _267  and  _268
REMARK  108  A    between atoms: _273  and  _275
REMARK  109  A    between atoms: _275  and  _276
REMARK  110  A    between atoms: _275  and  _278
REMARK  111  A    between atoms: _278  and  _279
REMARK  112  A    between atoms: _284  and  _285
REMARK  113  A    between atoms: _287  and  _289
REMARK  114  A    between atoms: _289  and  _290
REMARK  115  A    between atoms: _289  and  _292
REMARK  116  A    between atoms: _292  and  _293
REMARK  117  A    between atoms: _296  and  _298
REMARK  118  A    between atoms: _298  and  _299
REMARK  119  A    between atoms: _298  and  _301
REMARK  120  A    between atoms: _301  and  _302
REMARK  121  A    between atoms: _305  and  _307
REMARK  122  A    between atoms: _307  and  _308
REMARK  123  A    between atoms: _307  and  _310
REMARK  124  A    between atoms: _313  and  _315
REMARK  125  A    between atoms: _315  and  _316
REMARK  126  A    between atoms: _315  and  _318
REMARK  127  A    between atoms: _318  and  _319
REMARK  128  A    between atoms: _324  and  _326
REMARK  129  A    between atoms: _326  and  _327
REMARK  130  A    between atoms: _326  and  _329
REMARK  131  A    between atoms: _329  and  _330
REMARK  132  A    between atoms: _333  and  _335
REMARK  133  A    between atoms: _335  and  _336
REMARK  134  A    between atoms: _335  and  _338
REMARK  135  A    between atoms: _338  and  _339
REMARK  136  A    between atoms: _342  and  _344
REMARK  137  A    between atoms: _344  and  _345
REMARK  138  A    between atoms: _344  and  _347
REMARK  139  A    between atoms: _347  and  _348
REMARK  140  A    between atoms: _348  and  _349
REMARK  141  A    between atoms: _354  and  _356
REMARK  142  A    between atoms: _356  and  _357
REMARK  143  A    between atoms: _356  and  _359
REMARK  144  A    between atoms: _359  and  _360
REMARK  145  A    between atoms: _363  and  _365
REMARK  146  A    between atoms: _365  and  _366
REMARK  147  A    between atoms: _365  and  _368
REMARK  148  A    between atoms: _371  and  _373
REMARK  149  A    between atoms: _373  and  _374
REMARK  150  A    between atoms: _373  and  _376
REMARK  151  A    between atoms: _376  and  _377
REMARK  152  A    between atoms: _382  and  _383
REMARK  153  A    between atoms: _385  and  _387
REMARK  154  A    between atoms: _387  and  _388
REMARK  155  A    between atoms: _387  and  _390
REMARK  156  A    between atoms: _390  and  _391
REMARK  157  A    between atoms: _391  and  _392
REMARK  158  A    between atoms: _395  and  _397
REMARK  159  A    between atoms: _397  and  _398
REMARK  160  A    between atoms: _397  and  _400
REMARK  161  A    between atoms: _400  and  _401
REMARK  162  A    between atoms: _401  and  _402
REMARK  163  A    between atoms: _407  and  _409
REMARK  164  A    between atoms: _409  and  _410
REMARK  165  A    between atoms: _409  and  _412
REMARK  166  A    between atoms: _412  and  _413
REMARK  167  A    between atoms: _413  and  _414
REMARK  168  A    between atoms: _414  and  _415
REMARK  169  A    between atoms: _424  and  _426
REMARK  170  A    between atoms: _426  and  _427
REMARK  171  A    between atoms: _426  and  _429
REMARK  172  A    between atoms: _429  and  _430
REMARK  173  A    between atoms: _430  and  _431
REMARK  174  A    between atoms: _431  and  _432
REMARK  175  A    between atoms: _441  and  _443
REMARK  176  A    between atoms: _443  and  _444
REMARK  177  A    between atoms: _443  and  _446
REMARK  178  A    between atoms: _446  and  _447
REMARK  179  A    between atoms: _450  and  _451
REMARK  180  A    between atoms: _456  and  _458
REMARK  181  A    between atoms: _458  and  _459
REMARK  182  A    between atoms: _458  and  _461
REMARK  183  A    between atoms: _461  and  _462
REMARK  184  A    between atoms: _465  and  _467
REMARK  185  A    between atoms: _467  and  _468
REMARK  186  A    between atoms: _471  and  _473
REMARK  187  A    between atoms: _473  and  _474
REMARK  188  A    between atoms: _473  and  _476
REMARK  189  A    between atoms: _479  and  _481
REMARK  190  A    between atoms: _481  and  _482
REMARK  191  A    between atoms: _481  and  _484
REMARK  192  A    between atoms: _484  and  _485
REMARK  193  A    between atoms: _485  and  _486
REMARK  194  A    between atoms: _488  and  _490
REMARK  195  A    between atoms: _490  and  _491
REMARK  196  A    between atoms: _490  and  _493
REMARK  197  A    between atoms: _493  and  _494
REMARK  198  A    between atoms: _500  and  _502
REMARK  199  A    between atoms: _502  and  _503
REMARK  200  A    between atoms: _502  and  _505
REMARK  201  A    between atoms: _505  and  _506
REMARK  202  A    between atoms: _510  and  _511
REMARK  203  A    between atoms: _516  and  _518
REMARK  204  A    between atoms: _518  and  _519
REMARK  205  A    between atoms: _522  and  _524
REMARK  206  A    between atoms: _524  and  _525
REMARK  207  A    between atoms: _524  and  _527
REMARK  208  A    between atoms: _527  and  _528
REMARK  209  A    between atoms: _531  and  _533
REMARK  210  A    between atoms: _533  and  _534
REMARK  211  A    between atoms: _533  and  _536
REMARK  212  A    between atoms: _536  and  _537
REMARK  213  A    between atoms: _539  and  _541
REMARK  214  A    between atoms: _541  and  _542
REMARK  215  A    between atoms: _541  and  _544
REMARK  216  A    between atoms: _544  and  _545
REMARK  217  A    between atoms: _547  and  _549
REMARK  218  A    between atoms: _549  and  _550
REMARK  219  A    between atoms: _549  and  _552
REMARK  220  A    between atoms: _552  and  _553
REMARK  221  A    between atoms: _558  and  _559
REMARK  222  A    between atoms: _561  and  _563
REMARK  223  A    between atoms: _563  and  _564
REMARK  224  A    between atoms: _563  and  _566
REMARK  225  A    between atoms: _566  and  _567
REMARK  226  A    between atoms: _572  and  _573
REMARK  227  A    between atoms: _575  and  _577
REMARK  228  A    between atoms: _577  and  _578
REMARK                            x       y       z     vdW  Elec       q    Type
REMARK                         _______ _______ _______ _____ _____    ______ ____
ROOT
ATOM      1  O   HOH     1      -6.015  -6.384  -9.790  0.00  0.00    +0.000 OA
ENDROOT
TORSDOF 0
REMARK  Name = ../refined-set-2016/2byr/2byr_pocket.pdb
REMARK  228 active torsions:
REMARK  status: ('A' for Active; 'I' for Inactive)
REMARK    1  A    between atoms: _1  and  _3
REMARK    2  A    between atoms: _3  and  _4
REMARK    3  A    between atoms: _3  and  _6
REMARK    4  A    between atoms: _6  and  _7
REMARK    5  A    between atoms: _10  and  _12
REMARK    6  A    between atoms: _12  and  _13
REMARK    7  A    between atoms: _12  and  _15
REMARK    8  A    between atoms: _15  and  _16
REMARK    9  A    between atoms: _19  and  _21
REMARK   10  A    between atoms: _21  and  _22
REMARK   11  A    between atoms: _25  and  _27
REMARK   12  A    between atoms: _27  and  _28
REMARK   13  A    between atoms: _27  and  _30
REMARK   14  A    between atoms: _30  and  _31
REMARK   15  A    between atoms: _36  and  _37
REMARK   16  A    between atoms: _39  and  _41
REMARK   17  A    between atoms: _41  and  _42
REMARK   18  A    between atoms: _41  and  _44
REMARK   19  A    between atoms: _44  and  _45
REMARK   20  A    between atoms: _47  and  _49
REMARK   21  A    between atoms: _49  and  _50
REMARK   22  A    between atoms: _49  and  _52
REMARK   23  A    between atoms: _52  and  _53
REMARK   24  A    between atoms: _55  and  _57
REMARK   25  A    between atoms: _57  and  _58
REMARK   26  A    between atoms: _57  and  _60
REMARK   27  A    between atoms: _60  and  _61
REMARK   28  A    between atoms: _61  and  _62
REMARK   29  A    between atoms: _64  and  _66
REMARK   30  A    between atoms: _66  and  _67
REMARK   31  A    between atoms: _70  and  _72
REMARK   32  A    between atoms: _72  and  _73
REMARK   33  A    between atoms: _72  and  _75
REMARK   34  A    between atoms: _78  and  _80
REMARK   35  A    between atoms: _80  and  _81
REMARK   36  A    between atoms: _80  and  _83
REMARK   37  A    between atoms: _83  and  _84
REMARK   38  A    between atoms: _84  and  _85
REMARK   39  A    between atoms: _85  and  _86
REMARK   40  A    between atoms: _86  and  _87
REMARK   41  A    between atoms: _91  and  _93
REMARK   42  A    between atoms: _93  and  _94
REMARK   43  A    between atoms: _93  and  _96
REMARK   44  A    between atoms: _96  and  _97
REMARK   45  A    between atoms: _103  and  _105
REMARK   46  A    between atoms: _105  and  _106
REMARK   47  A    between atoms: _108  and  _110
REMARK   48  A    between atoms: _110  and  _111
REMARK   49  A    between atoms: _110  and  _113
REMARK   50  A    between atoms: _113  and  _114
REMARK   51  A    between atoms: _116  and  _118
REMARK   52  A    between atoms: _118  and  _119
REMARK   53  A    between atoms: _118  and  _121
REMARK   54  A    between atoms: _121  and  _122
REMARK   55  A    between atoms: _132  and  _134
REMARK   56  A    between atoms: _134  and  _135
REMARK   57  A    between atoms: _134  and  _137
REMARK   58  A    between atoms: _140  and  _142
REMARK   59  A    between atoms: _142  and  _143
REMARK   60  A    between atoms: _142  and  _145
REMARK   61  A    between atoms: _145  and  _146
REMARK   62  A    between atoms: _151  and  _152
REMARK   63  A    between atoms: _154  and  _156
REMARK   64  A    between atoms: _156  and  _157
REMARK   65  A    between atoms: _156  and  _159
REMARK   66  A    between atoms: _159  and  _160
REMARK   67  A    between atoms: _162  and  _164
REMARK   68  A    between atoms: _164  and  _165
REMARK   69  A    between atoms: _167  and  _169
REMARK   70  A    between atoms: _169  and  _170
REMARK   71  A    between atoms: _169  and  _172
REMARK   72  A    between atoms: _172  and  _173
REMARK   73  A    between atoms: _173  and  _174
REMARK   74  A    between atoms: _177  and  _179
REMARK   75  A    between atoms: _179  and  _180
REMARK   76  A    between atoms: _179  and  _182
REMARK   77  A    between atoms: _182  and  _183
REMARK   78  A    between atoms: _183  and  _184
REMARK   79  A    between atoms: _189  and  _191
REMARK   80  A    between atoms: _191  and  _192
REMARK   81  A    between atoms: _191  and  _194
REMARK   82  A    between atoms: _197  and  _199
REMARK   83  A    between atoms: _199  and  _200
REMARK   84  A    between atoms: _199  and  _202
REMARK   85  A    between atoms: _202  and  _203
REMARK   86  A    between atoms: _203  and  _204
REMARK   87  A    between atoms: _209  and  _211
REMARK   88  A    between atoms: _211  and  _212
REMARK   89  A    between atoms: _211  and  _214
REMARK   90  A    between atoms: _214  and  _215
REMARK   91  A    between atoms: _220  and  _222
REMARK   92  A    between atoms: _222  and  _223
REMARK   93  A    between atoms: _222  and  _225
REMARK   94  A    between atoms: _225  and  _226
REMARK   95  A    between atoms: _231  and  _232
REMARK   96  A    between atoms: _234  and  _236
REMARK   97  A    between atoms: _236  and  _237
REMARK   98  A    between atoms: _236  and  _239
REMARK   99  A    between atoms: _239  and  _240
REMARK  100  A    between atoms: _242  and  _244
REMARK  101  A    between atoms: _251  and  _252
REMARK  102  A    between atoms: _256  and  _258
REMARK  103  A    between atoms: _258  and  _259
REMARK  104  A    between atoms: _258  and  _261
REMARK  105  A    between atoms: _261  and  _262
REMARK  106  A    between atoms: _262  and  _263
REMARK  107  A    between atoms: _267  and  _268
REMARK  108  A    between atoms: _273  and  _275
REMARK  109  A    between atoms: _275  and  _276
REMARK  110  A    between atoms: _275  and  _278
REMARK  111  A    between atoms: _278  and  _279
REMARK  112  A    between atoms: _284  and  _285
REMARK  113  A    between atoms: _287  and  _289
REMARK  114  A    between atoms: _289  and  _290
REMARK  115  A    between atoms: _289  and  _292
REMARK  116  A    between atoms: _292  and  _293
REMARK  117  A    between atoms: _296  and  _298
REMARK  118  A    between atoms: _298  and  _299
REMARK  119  A    between atoms: _298  and  _301
REMARK  120  A    between atoms: _301  and  _302
REMARK  121  A    between atoms: _305  and  _307
REMARK  122  A    between atoms: _307  and  _308
REMARK  123  A    between atoms: _307  and  _310
REMARK  124  A    between atoms: _313  and  _315
REMARK  125  A    between atoms: _315  and  _316
REMARK  126  A    between atoms: _315  and  _318
REMARK  127  A    between atoms: _318  and  _319
REMARK  128  A    between atoms: _324  and  _326
REMARK  129  A    between atoms: _326  and  _327
REMARK  130  A    between atoms: _326  and  _329
REMARK  131  A    between atoms: _329  and  _330
REMARK  132  A    between atoms: _333  and  _335
REMARK  133  A    between atoms: _335  and  _336
REMARK  134  A    between atoms: _335  and  _338
REMARK  135  A    between atoms: _338  and  _339
REMARK  136  A    between atoms: _342  and  _344
REMARK  137  A    between atoms: _344  and  _345
REMARK  138  A    between atoms: _344  and  _347
REMARK  139  A    between atoms: _347  and  _348
REMARK  140  A    between atoms: _348  and  _349
REMARK  141  A    between atoms: _354  and  _356
REMARK  142  A    between atoms: _356  and  _357
REMARK  143  A    between atoms: _356  and  _359
REMARK  144  A    between atoms: _359  and  _360
REMARK  145  A    between atoms: _363  and  _365
REMARK  146  A    between atoms: _365  and  _366
REMARK  147  A    between atoms: _365  and  _368
REMARK  148  A    between atoms: _371  and  _373
REMARK  149  A    between atoms: _373  and  _374
REMARK  150  A    between atoms: _373  and  _376
REMARK  151  A    between atoms: _376  and  _377
REMARK  152  A    between atoms: _382  and  _383
REMARK  153  A    between atoms: _385  and  _387
REMARK  154  A    between atoms: _387  and  _388
REMARK  155  A    between atoms: _387  and  _390
REMARK  156  A    between atoms: _390  and  _391
REMARK  157  A    between atoms: _391  and  _392
REMARK  158  A    between atoms: _395  and  _397
REMARK  159  A    between atoms: _397  and  _398
REMARK  160  A    between atoms: _397  and  _400
REMARK  161  A    between atoms: _400  and  _401
REMARK  162  A    between atoms: _401  and  _402
REMARK  163  A    between atoms: _407  and  _409
REMARK  164  A    between atoms: _409  and  _410
REMARK  165  A    between atoms: _409  and  _412
REMARK  166  A    between atoms: _412  and  _413
REMARK  167  A    between atoms: _413  and  _414
REMARK  168  A    between atoms: _414  and  _415
REMARK  169  A    between atoms: _424  and  _426
REMARK  170  A    between atoms: _426  and  _427
REMARK  171  A    between atoms: _426  and  _429
REMARK  172  A    between atoms: _429  and  _430
REMARK  173  A    between atoms: _430  and  _431
REMARK  174  A    between atoms: _431  and  _432
REMARK  175  A    between atoms: _441  and  _443
REMARK  176  A    between atoms: _443  and  _444
REMARK  177  A    between atoms: _443  and  _446
REMARK  178  A    between atoms: _446  and  _447
REMARK  179  A    between atoms: _450  and  _451
REMARK  180  A    between atoms: _456  and  _458
REMARK  181  A    between atoms: _458  and  _459
REMARK  182  A    between atoms: _458  and  _461
REMARK  183  A    between atoms: _461  and  _462
REMARK  184  A    between atoms: _465  and  _467
REMARK  185  A    between atoms: _467  and  _468
REMARK  186  A    between atoms: _471  and  _473
REMARK  187  A    between atoms: _473  and  _474
REMARK  188  A    between atoms: _473  and  _476
REMARK  189  A    between atoms: _479  and  _481
REMARK  190  A    between atoms: _481  and  _482
REMARK  191  A    between atoms: _481  and  _484
REMARK  192  A    between atoms: _484  and  _485
REMARK  193  A    between atoms: _485  and  _486
REMARK  194  A    between atoms: _488  and  _490
REMARK  195  A    between atoms: _490  and  _491
REMARK  196  A    between atoms: _490  and  _493
REMARK  197  A    between atoms: _493  and  _494
REMARK  198  A    between atoms: _500  and  _502
REMARK  199  A    between atoms: _502  and  _503
REMARK  200  A    between atoms: _502  and  _505
REMARK  201  A    between atoms: _505  and  _506
REMARK  202  A    between atoms: _510  and  _511
REMARK  203  A    between atoms: _516  and  _518
REMARK  204  A    between atoms: _518  and  _519
REMARK  205  A    between atoms: _522  and  _524
REMARK  206  A    between atoms: _524  and  _525
REMARK  207  A    between atoms: _524  and  _527
REMARK  208  A    between atoms: _527  and  _528
REMARK  209  A    between atoms: _531  and  _533
REMARK  210  A    between atoms: _533  and  _534
REMARK  211  A    between atoms: _533  and  _536
REMARK  212  A    between atoms: _536  and  _537
REMARK  213  A    between atoms: _539  and  _541
REMARK  214  A    between atoms: _541  and  _542
REMARK  215  A    between atoms: _541  and  _544
REMARK  216  A    between atoms: _544  and  _545
REMARK  217  A    between atoms: _547  and  _549
REMARK  218  A    between atoms: _549  and  _550
REMARK  219  A    between atoms: _549  and  _552
REMARK  220  A    between atoms: _552  and  _553
REMARK  221  A    between atoms: _558  and  _559
REMARK  222  A    between atoms: _561  and  _563
REMARK  223  A    between atoms: _563  and  _564
REMARK  224  A    between atoms: _563  and  _566
REMARK  225  A    between atoms: _566  and  _567
REMARK  226  A    between atoms: _572  and  _573
REMARK  227  A    between atoms: _575  and  _577
REMARK  228  A    between atoms: _577  and  _578
REMARK                            x       y       z     vdW  Elec       q    Type
REMARK                         _______ _______ _______ _____ _____    ______ ____
ROOT
ATOM      1  O   HOH     1      13.628   0.024  -9.869  0.00  0.00    +0.000 OA
ENDROOT
TORSDOF 0
REMARK  Name = ../refined-set-2016/2byr/2byr_pocket.pdb
REMARK  228 active torsions:
REMARK  status: ('A' for Active; 'I' for Inactive)
REMARK    1  A    between atoms: _1  and  _3
REMARK    2  A    between atoms: _3  and  _4
REMARK    3  A    between atoms: _3  and  _6
REMARK    4  A    between atoms: _6  and  _7
REMARK    5  A    between atoms: _10  and  _12
REMARK    6  A    between atoms: _12  and  _13
REMARK    7  A    between atoms: _12  and  _15
REMARK    8  A    between atoms: _15  and  _16
REMARK    9  A    between atoms: _19  and  _21
REMARK   10  A    between atoms: _21  and  _22
REMARK   11  A    between atoms: _25  and  _27
REMARK   12  A    between atoms: _27  and  _28
REMARK   13  A    between atoms: _27  and  _30
REMARK   14  A    between atoms: _30  and  _31
REMARK   15  A    between atoms: _36  and  _37
REMARK   16  A    between atoms: _39  and  _41
REMARK   17  A    between atoms: _41  and  _42
REMARK   18  A    between atoms: _41  and  _44
REMARK   19  A    between atoms: _44  and  _45
REMARK   20  A    between atoms: _47  and  _49
REMARK   21  A    between atoms: _49  and  _50
REMARK   22  A    between atoms: _49  and  _52
REMARK   23  A    between atoms: _52  and  _53
REMARK   24  A    between atoms: _55  and  _57
REMARK   25  A    between atoms: _57  and  _58
REMARK   26  A    between atoms: _57  and  _60
REMARK   27  A    between atoms: _60  and  _61
REMARK   28  A    between atoms: _61  and  _62
REMARK   29  A    between atoms: _64  and  _66
REMARK   30  A    between atoms: _66  and  _67
REMARK   31  A    between atoms: _70  and  _72
REMARK   32  A    between atoms: _72  and  _73
REMARK   33  A    between atoms: _72  and  _75
REMARK   34  A    between atoms: _78  and  _80
REMARK   35  A    between atoms: _80  and  _81
REMARK   36  A    between atoms: _80  and  _83
REMARK   37  A    between atoms: _83  and  _84
REMARK   38  A    between atoms: _84  and  _85
REMARK   39  A    between atoms: _85  and  _86
REMARK   40  A    between atoms: _86  and  _87
REMARK   41  A    between atoms: _91  and  _93
REMARK   42  A    between atoms: _93  and  _94
REMARK   43  A    between atoms: _93  and  _96
REMARK   44  A    between atoms: _96  and  _97
REMARK   45  A    between atoms: _103  and  _105
REMARK   46  A    between atoms: _105  and  _106
REMARK   47  A    between atoms: _108  and  _110
REMARK   48  A    between atoms: _110  and  _111
REMARK   49  A    between atoms: _110  and  _113
REMARK   50  A    between atoms: _113  and  _114
REMARK   51  A    between atoms: _116  and  _118
REMARK   52  A    between atoms: _118  and  _119
REMARK   53  A    between atoms: _118  and  _121
REMARK   54  A    between atoms: _121  and  _122
REMARK   55  A    between atoms: _132  and  _134
REMARK   56  A    between atoms: _134  and  _135
REMARK   57  A    between atoms: _134  and  _137
REMARK   58  A    between atoms: _140  and  _142
REMARK   59  A    between atoms: _142  and  _143
REMARK   60  A    between atoms: _142  and  _145
REMARK   61  A    between atoms: _145  and  _146
REMARK   62  A    between atoms: _151  and  _152
REMARK   63  A    between atoms: _154  and  _156
REMARK   64  A    between atoms: _156  and  _157
REMARK   65  A    between atoms: _156  and  _159
REMARK   66  A    between atoms: _159  and  _160
REMARK   67  A    between atoms: _162  and  _164
REMARK   68  A    between atoms: _164  and  _165
REMARK   69  A    between atoms: _167  and  _169
REMARK   70  A    between atoms: _169  and  _170
REMARK   71  A    between atoms: _169  and  _172
REMARK   72  A    between atoms: _172  and  _173
REMARK   73  A    between atoms: _173  and  _174
REMARK   74  A    between atoms: _177  and  _179
REMARK   75  A    between atoms: _179  and  _180
REMARK   76  A    between atoms: _179  and  _182
REMARK   77  A    between atoms: _182  and  _183
REMARK   78  A    between atoms: _183  and  _184
REMARK   79  A    between atoms: _189  and  _191
REMARK   80  A    between atoms: _191  and  _192
REMARK   81  A    between atoms: _191  and  _194
REMARK   82  A    between atoms: _197  and  _199
REMARK   83  A    between atoms: _199  and  _200
REMARK   84  A    between atoms: _199  and  _202
REMARK   85  A    between atoms: _202  and  _203
REMARK   86  A    between atoms: _203  and  _204
REMARK   87  A    between atoms: _209  and  _211
REMARK   88  A    between atoms: _211  and  _212
REMARK   89  A    between atoms: _211  and  _214
REMARK   90  A    between atoms: _214  and  _215
REMARK   91  A    between atoms: _220  and  _222
REMARK   92  A    between atoms: _222  and  _223
REMARK   93  A    between atoms: _222  and  _225
REMARK   94  A    between atoms: _225  and  _226
REMARK   95  A    between atoms: _231  and  _232
REMARK   96  A    between atoms: _234  and  _236
REMARK   97  A    between atoms: _236  and  _237
REMARK   98  A    between atoms: _236  and  _239
REMARK   99  A    between atoms: _239  and  _240
REMARK  100  A    between atoms: _242  and  _244
REMARK  101  A    between atoms: _251  and  _252
REMARK  102  A    between atoms: _256  and  _258
REMARK  103  A    between atoms: _258  and  _259
REMARK  104  A    between atoms: _258  and  _261
REMARK  105  A    between atoms: _261  and  _262
REMARK  106  A    between atoms: _262  and  _263
REMARK  107  A    between atoms: _267  and  _268
REMARK  108  A    between atoms: _273  and  _275
REMARK  109  A    between atoms: _275  and  _276
REMARK  110  A    between atoms: _275  and  _278
REMARK  111  A    between atoms: _278  and  _279
REMARK  112  A    between atoms: _284  and  _285
REMARK  113  A    between atoms: _287  and  _289
REMARK  114  A    between atoms: _289  and  _290
REMARK  115  A    between atoms: _289  and  _292
REMARK  116  A    between atoms: _292  and  _293
REMARK  117  A    between atoms: _296  and  _298
REMARK  118  A    between atoms: _298  and  _299
REMARK  119  A    between atoms: _298  and  _301
REMARK  120  A    between atoms: _301  and  _302
REMARK  121  A    between atoms: _305  and  _307
REMARK  122  A    between atoms: _307  and  _308
REMARK  123  A    between atoms: _307  and  _310
REMARK  124  A    between atoms: _313  and  _315
REMARK  125  A    between atoms: _315  and  _316
REMARK  126  A    between atoms: _315  and  _318
REMARK  127  A    between atoms: _318  and  _319
REMARK  128  A    between atoms: _324  and  _326
REMARK  129  A    between atoms: _326  and  _327
REMARK  130  A    between atoms: _326  and  _329
REMARK  131  A    between atoms: _329  and  _330
REMARK  132  A    between atoms: _333  and  _335
REMARK  133  A    between atoms: _335  and  _336
REMARK  134  A    between atoms: _335  and  _338
REMARK  135  A    between atoms: _338  and  _339
REMARK  136  A    between atoms: _342  and  _344
REMARK  137  A    between atoms: _344  and  _345
REMARK  138  A    between atoms: _344  and  _347
REMARK  139  A    between atoms: _347  and  _348
REMARK  140  A    between atoms: _348  and  _349
REMARK  141  A    between atoms: _354  and  _356
REMARK  142  A    between atoms: _356  and  _357
REMARK  143  A    between atoms: _356  and  _359
REMARK  144  A    between atoms: _359  and  _360
REMARK  145  A    between atoms: _363  and  _365
REMARK  146  A    between atoms: _365  and  _366
REMARK  147  A    between atoms: _365  and  _368
REMARK  148  A    between atoms: _371  and  _373
REMARK  149  A    between atoms: _373  and  _374
REMARK  150  A    between atoms: _373  and  _376
REMARK  151  A    between atoms: _376  and  _377
REMARK  152  A    between atoms: _382  and  _383
REMARK  153  A    between atoms: _385  and  _387
REMARK  154  A    between atoms: _387  and  _388
REMARK  155  A    between atoms: _387  and  _390
REMARK  156  A    between atoms: _390  and  _391
REMARK  157  A    between atoms: _391  and  _392
REMARK  158  A    between atoms: _395  and  _397
REMARK  159  A    between atoms: _397  and  _398
REMARK  160  A    between atoms: _397  and  _400
REMARK  161  A    between atoms: _400  and  _401
REMARK  162  A    between atoms: _401  and  _402
REMARK  163  A    between atoms: _407  and  _409
REMARK  164  A    between atoms: _409  and  _410
REMARK  165  A    between atoms: _409  and  _412
REMARK  166  A    between atoms: _412  and  _413
REMARK  167  A    between atoms: _413  and  _414
REMARK  168  A    between atoms: _414  and  _415
REMARK  169  A    between atoms: _424  and  _426
REMARK  170  A    between atoms: _426  and  _427
REMARK  171  A    between atoms: _426  and  _429
REMARK  172  A    between atoms: _429  and  _430
REMARK  173  A    between atoms: _430  and  _431
REMARK  174  A    between atoms: _431  and  _432
REMARK  175  A    between atoms: _441  and  _443
REMARK  176  A    between atoms: _443  and  _444
REMARK  177  A    between atoms: _443  and  _446
REMARK  178  A    between atoms: _446  and  _447
REMARK  179  A    between atoms: _450  and  _451
REMARK  180  A    between atoms: _456  and  _458
REMARK  181  A    between atoms: _458  and  _459
REMARK  182  A    between atoms: _458  and  _461
REMARK  183  A    between atoms: _461  and  _462
REMARK  184  A    between atoms: _465  and  _467
REMARK  185  A    between atoms: _467  and  _468
REMARK  186  A    between atoms: _471  and  _473
REMARK  187  A    between atoms: _473  and  _474
REMARK  188  A    between atoms: _473  and  _476
REMARK  189  A    between atoms: _479  and  _481
REMARK  190  A    between atoms: _481  and  _482
REMARK  191  A    between atoms: _481  and  _484
REMARK  192  A    between atoms: _484  and  _485
REMARK  193  A    between atoms: _485  and  _486
REMARK  194  A    between atoms: _488  and  _490
REMARK  195  A    between atoms: _490  and  _491
REMARK  196  A    between atoms: _490  and  _493
REMARK  197  A    between atoms: _493  and  _494
REMARK  198  A    between atoms: _500  and  _502
REMARK  199  A    between atoms: _502  and  _503
REMARK  200  A    between atoms: _502  and  _505
REMARK  201  A    between atoms: _505  and  _506
REMARK  202  A    between atoms: _510  and  _511
REMARK  203  A    between atoms: _516  and  _518
REMARK  204  A    between atoms: _518  and  _519
REMARK  205  A    between atoms: _522  and  _524
REMARK  206  A    between atoms: _524  and  _525
REMARK  207  A    between atoms: _524  and  _527
REMARK  208  A    between atoms: _527  and  _528
REMARK  209  A    between atoms: _531  and  _533
REMARK  210  A    between atoms: _533  and  _534
REMARK  211  A    between atoms: _533  and  _536
REMARK  212  A    between atoms: _536  and  _537
REMARK  213  A    between atoms: _539  and  _541
REMARK  214  A    between atoms: _541  and  _542
REMARK  215  A    between atoms: _541  and  _544
REMARK  216  A    between atoms: _544  and  _545
REMARK  217  A    between atoms: _547  and  _549
REMARK  218  A    between atoms: _549  and  _550
REMARK  219  A    between atoms: _549  and  _552
REMARK  220  A    between atoms: _552  and  _553
REMARK  221  A    between atoms: _558  and  _559
REMARK  222  A    between atoms: _561  and  _563
REMARK  223  A    between atoms: _563  and  _564
REMARK  224  A    between atoms: _563  and  _566
REMARK  225  A    between atoms: _566  and  _567
REMARK  226  A    between atoms: _572  and  _573
REMARK  227  A    between atoms: _575  and  _577
REMARK  228  A    between atoms: _577  and  _578
REMARK                            x       y       z     vdW  Elec       q    Type
REMARK                         _______ _______ _______ _____ _____    ______ ____
ROOT
ATOM      1  O   HOH     1      11.429  -6.772 -12.160  0.00  0.00    +0.000 OA
ENDROOT
TORSDOF 0
REMARK  Name = ../refined-set-2016/2byr/2byr_pocket.pdb
REMARK  228 active torsions:
REMARK  status: ('A' for Active; 'I' for Inactive)
REMARK    1  A    between atoms: _1  and  _3
REMARK    2  A    between atoms: _3  and  _4
REMARK    3  A    between atoms: _3  and  _6
REMARK    4  A    between atoms: _6  and  _7
REMARK    5  A    between atoms: _10  and  _12
REMARK    6  A    between atoms: _12  and  _13
REMARK    7  A    between atoms: _12  and  _15
REMARK    8  A    between atoms: _15  and  _16
REMARK    9  A    between atoms: _19  and  _21
REMARK   10  A    between atoms: _21  and  _22
REMARK   11  A    between atoms: _25  and  _27
REMARK   12  A    between atoms: _27  and  _28
REMARK   13  A    between atoms: _27  and  _30
REMARK   14  A    between atoms: _30  and  _31
REMARK   15  A    between atoms: _36  and  _37
REMARK   16  A    between atoms: _39  and  _41
REMARK   17  A    between atoms: _41  and  _42
REMARK   18  A    between atoms: _41  and  _44
REMARK   19  A    between atoms: _44  and  _45
REMARK   20  A    between atoms: _47  and  _49
REMARK   21  A    between atoms: _49  and  _50
REMARK   22  A    between atoms: _49  and  _52
REMARK   23  A    between atoms: _52  and  _53
REMARK   24  A    between atoms: _55  and  _57
REMARK   25  A    between atoms: _57  and  _58
REMARK   26  A    between atoms: _57  and  _60
REMARK   27  A    between atoms: _60  and  _61
REMARK   28  A    between atoms: _61  and  _62
REMARK   29  A    between atoms: _64  and  _66
REMARK   30  A    between atoms: _66  and  _67
REMARK   31  A    between atoms: _70  and  _72
REMARK   32  A    between atoms: _72  and  _73
REMARK   33  A    between atoms: _72  and  _75
REMARK   34  A    between atoms: _78  and  _80
REMARK   35  A    between atoms: _80  and  _81
REMARK   36  A    between atoms: _80  and  _83
REMARK   37  A    between atoms: _83  and  _84
REMARK   38  A    between atoms: _84  and  _85
REMARK   39  A    between atoms: _85  and  _86
REMARK   40  A    between atoms: _86  and  _87
REMARK   41  A    between atoms: _91  and  _93
REMARK   42  A    between atoms: _93  and  _94
REMARK   43  A    between atoms: _93  and  _96
REMARK   44  A    between atoms: _96  and  _97
REMARK   45  A    between atoms: _103  and  _105
REMARK   46  A    between atoms: _105  and  _106
REMARK   47  A    between atoms: _108  and  _110
REMARK   48  A    between atoms: _110  and  _111
REMARK   49  A    between atoms: _110  and  _113
REMARK   50  A    between atoms: _113  and  _114
REMARK   51  A    between atoms: _116  and  _118
REMARK   52  A    between atoms: _118  and  _119
REMARK   53  A    between atoms: _118  and  _121
REMARK   54  A    between atoms: _121  and  _122
REMARK   55  A    between atoms: _132  and  _134
REMARK   56  A    between atoms: _134  and  _135
REMARK   57  A    between atoms: _134  and  _137
REMARK   58  A    between atoms: _140  and  _142
REMARK   59  A    between atoms: _142  and  _143
REMARK   60  A    between atoms: _142  and  _145
REMARK   61  A    between atoms: _145  and  _146
REMARK   62  A    between atoms: _151  and  _152
REMARK   63  A    between atoms: _154  and  _156
REMARK   64  A    between atoms: _156  and  _157
REMARK   65  A    between atoms: _156  and  _159
REMARK   66  A    between atoms: _159  and  _160
REMARK   67  A    between atoms: _162  and  _164
REMARK   68  A    between atoms: _164  and  _165
REMARK   69  A    between atoms: _167  and  _169
REMARK   70  A    between atoms: _169  and  _170
REMARK   71  A    between atoms: _169  and  _172
REMARK   72  A    between atoms: _172  and  _173
REMARK   73  A    between atoms: _173  and  _174
REMARK   74  A    between atoms: _177  and  _179
REMARK   75  A    between atoms: _179  and  _180
REMARK   76  A    between atoms: _179  and  _182
REMARK   77  A    between atoms: _182  and  _183
REMARK   78  A    between atoms: _183  and  _184
REMARK   79  A    between atoms: _189  and  _191
REMARK   80  A    between atoms: _191  and  _192
REMARK   81  A    between atoms: _191  and  _194
REMARK   82  A    between atoms: _197  and  _199
REMARK   83  A    between atoms: _199  and  _200
REMARK   84  A    between atoms: _199  and  _202
REMARK   85  A    between atoms: _202  and  _203
REMARK   86  A    between atoms: _203  and  _204
REMARK   87  A    between atoms: _209  and  _211
REMARK   88  A    between atoms: _211  and  _212
REMARK   89  A    between atoms: _211  and  _214
REMARK   90  A    between atoms: _214  and  _215
REMARK   91  A    between atoms: _220  and  _222
REMARK   92  A    between atoms: _222  and  _223
REMARK   93  A    between atoms: _222  and  _225
REMARK   94  A    between atoms: _225  and  _226
REMARK   95  A    between atoms: _231  and  _232
REMARK   96  A    between atoms: _234  and  _236
REMARK   97  A    between atoms: _236  and  _237
REMARK   98  A    between atoms: _236  and  _239
REMARK   99  A    between atoms: _239  and  _240
REMARK  100  A    between atoms: _242  and  _244
REMARK  101  A    between atoms: _251  and  _252
REMARK  102  A    between atoms: _256  and  _258
REMARK  103  A    between atoms: _258  and  _259
REMARK  104  A    between atoms: _258  and  _261
REMARK  105  A    between atoms: _261  and  _262
REMARK  106  A    between atoms: _262  and  _263
REMARK  107  A    between atoms: _267  and  _268
REMARK  108  A    between atoms: _273  and  _275
REMARK  109  A    between atoms: _275  and  _276
REMARK  110  A    between atoms: _275  and  _278
REMARK  111  A    between atoms: _278  and  _279
REMARK  112  A    between atoms: _284  and  _285
REMARK  113  A    between atoms: _287  and  _289
REMARK  114  A    between atoms: _289  and  _290
REMARK  115  A    between atoms: _289  and  _292
REMARK  116  A    between atoms: _292  and  _293
REMARK  117  A    between atoms: _296  and  _298
REMARK  118  A    between atoms: _298  and  _299
REMARK  119  A    between atoms: _298  and  _301
REMARK  120  A    between atoms: _301  and  _302
REMARK  121  A    between atoms: _305  and  _307
REMARK  122  A    between atoms: _307  and  _308
REMARK  123  A    between atoms: _307  and  _310
REMARK  124  A    between atoms: _313  and  _315
REMARK  125  A    between atoms: _315  and  _316
REMARK  126  A    between atoms: _315  and  _318
REMARK  127  A    between atoms: _318  and  _319
REMARK  128  A    between atoms: _324  and  _326
REMARK  129  A    between atoms: _326  and  _327
REMARK  130  A    between atoms: _326  and  _329
REMARK  131  A    between atoms: _329  and  _330
REMARK  132  A    between atoms: _333  and  _335
REMARK  133  A    between atoms: _335  and  _336
REMARK  134  A    between atoms: _335  and  _338
REMARK  135  A    between atoms: _338  and  _339
REMARK  136  A    between atoms: _342  and  _344
REMARK  137  A    between atoms: _344  and  _345
REMARK  138  A    between atoms: _344  and  _347
REMARK  139  A    between atoms: _347  and  _348
REMARK  140  A    between atoms: _348  and  _349
REMARK  141  A    between atoms: _354  and  _356
REMARK  142  A    between atoms: _356  and  _357
REMARK  143  A    between atoms: _356  and  _359
REMARK  144  A    between atoms: _359  and  _360
REMARK  145  A    between atoms: _363  and  _365
REMARK  146  A    between atoms: _365  and  _366
REMARK  147  A    between atoms: _365  and  _368
REMARK  148  A    between atoms: _371  and  _373
REMARK  149  A    between atoms: _373  and  _374
REMARK  150  A    between atoms: _373  and  _376
REMARK  151  A    between atoms: _376  and  _377
REMARK  152  A    between atoms: _382  and  _383
REMARK  153  A    between atoms: _385  and  _387
REMARK  154  A    between atoms: _387  and  _388
REMARK  155  A    between atoms: _387  and  _390
REMARK  156  A    between atoms: _390  and  _391
REMARK  157  A    between atoms: _391  and  _392
REMARK  158  A    between atoms: _395  and  _397
REMARK  159  A    between atoms: _397  and  _398
REMARK  160  A    between atoms: _397  and  _400
REMARK  161  A    between atoms: _400  and  _401
REMARK  162  A    between atoms: _401  and  _402
REMARK  163  A    between atoms: _407  and  _409
REMARK  164  A    between atoms: _409  and  _410
REMARK  165  A    between atoms: _409  and  _412
REMARK  166  A    between atoms: _412  and  _413
REMARK  167  A    between atoms: _413  and  _414
REMARK  168  A    between atoms: _414  and  _415
REMARK  169  A    between atoms: _424  and  _426
REMARK  170  A    between atoms: _426  and  _427
REMARK  171  A    between atoms: _426  and  _429
REMARK  172  A    between atoms: _429  and  _430
REMARK  173  A    between atoms: _430  and  _431
REMARK  174  A    between atoms: _431  and  _432
REMARK  175  A    between atoms: _441  and  _443
REMARK  176  A    between atoms: _443  and  _444
REMARK  177  A    between atoms: _443  and  _446
REMARK  178  A    between atoms: _446  and  _447
REMARK  179  A    between atoms: _450  and  _451
REMARK  180  A    between atoms: _456  and  _458
REMARK  181  A    between atoms: _458  and  _459
REMARK  182  A    between atoms: _458  and  _461
REMARK  183  A    between atoms: _461  and  _462
REMARK  184  A    between atoms: _465  and  _467
REMARK  185  A    between atoms: _467  and  _468
REMARK  186  A    between atoms: _471  and  _473
REMARK  187  A    between atoms: _473  and  _474
REMARK  188  A    between atoms: _473  and  _476
REMARK  189  A    between atoms: _479  and  _481
REMARK  190  A    between atoms: _481  and  _482
REMARK  191  A    between atoms: _481  and  _484
REMARK  192  A    between atoms: _484  and  _485
REMARK  193  A    between atoms: _485  and  _486
REMARK  194  A    between atoms: _488  and  _490
REMARK  195  A    between atoms: _490  and  _491
REMARK  196  A    between atoms: _490  and  _493
REMARK  197  A    between atoms: _493  and  _494
REMARK  198  A    between atoms: _500  and  _502
REMARK  199  A    between atoms: _502  and  _503
REMARK  200  A    between atoms: _502  and  _505
REMARK  201  A    between atoms: _505  and  _506
REMARK  202  A    between atoms: _510  and  _511
REMARK  203  A    between atoms: _516  and  _518
REMARK  204  A    between atoms: _518  and  _519
REMARK  205  A    between atoms: _522  and  _524
REMARK  206  A    between atoms: _524  and  _525
REMARK  207  A    between atoms: _524  and  _527
REMARK  208  A    between atoms: _527  and  _528
REMARK  209  A    between atoms: _531  and  _533
REMARK  210  A    between atoms: _533  and  _534
REMARK  211  A    between atoms: _533  and  _536
REMARK  212  A    between atoms: _536  and  _537
REMARK  213  A    between atoms: _539  and  _541
REMARK  214  A    between atoms: _541  and  _542
REMARK  215  A    between atoms: _541  and  _544
REMARK  216  A    between atoms: _544  and  _545
REMARK  217  A    between atoms: _547  and  _549
REMARK  218  A    between atoms: _549  and  _550
REMARK  219  A    between atoms: _549  and  _552
REMARK  220  A    between atoms: _552  and  _553
REMARK  221  A    between atoms: _558  and  _559
REMARK  222  A    between atoms: _561  and  _563
REMARK  223  A    between atoms: _563  and  _564
REMARK  224  A    between atoms: _563  and  _566
REMARK  225  A    between atoms: _566  and  _567
REMARK  226  A    between atoms: _572  and  _573
REMARK  227  A    between atoms: _575  and  _577
REMARK  228  A    between atoms: _577  and  _578
REMARK                            x       y       z     vdW  Elec       q    Type
REMARK                         _______ _______ _______ _____ _____    ______ ____
ROOT
ATOM      1  O   HOH     1      18.887  -2.172 -12.844  0.00  0.00    +0.000 OA
ENDROOT
TORSDOF 0
REMARK  Name = ../refined-set-2016/2byr/2byr_pocket.pdb
REMARK  228 active torsions:
REMARK  status: ('A' for Active; 'I' for Inactive)
REMARK    1  A    between atoms: _1  and  _3
REMARK    2  A    between atoms: _3  and  _4
REMARK    3  A    between atoms: _3  and  _6
REMARK    4  A    between atoms: _6  and  _7
REMARK    5  A    between atoms: _10  and  _12
REMARK    6  A    between atoms: _12  and  _13
REMARK    7  A    between atoms: _12  and  _15
REMARK    8  A    between atoms: _15  and  _16
REMARK    9  A    between atoms: _19  and  _21
REMARK   10  A    between atoms: _21  and  _22
REMARK   11  A    between atoms: _25  and  _27
REMARK   12  A    between atoms: _27  and  _28
REMARK   13  A    between atoms: _27  and  _30
REMARK   14  A    between atoms: _30  and  _31
REMARK   15  A    between atoms: _36  and  _37
REMARK   16  A    between atoms: _39  and  _41
REMARK   17  A    between atoms: _41  and  _42
REMARK   18  A    between atoms: _41  and  _44
REMARK   19  A    between atoms: _44  and  _45
REMARK   20  A    between atoms: _47  and  _49
REMARK   21  A    between atoms: _49  and  _50
REMARK   22  A    between atoms: _49  and  _52
REMARK   23  A    between atoms: _52  and  _53
REMARK   24  A    between atoms: _55  and  _57
REMARK   25  A    between atoms: _57  and  _58
REMARK   26  A    between atoms: _57  and  _60
REMARK   27  A    between atoms: _60  and  _61
REMARK   28  A    between atoms: _61  and  _62
REMARK   29  A    between atoms: _64  and  _66
REMARK   30  A    between atoms: _66  and  _67
REMARK   31  A    between atoms: _70  and  _72
REMARK   32  A    between atoms: _72  and  _73
REMARK   33  A    between atoms: _72  and  _75
REMARK   34  A    between atoms: _78  and  _80
REMARK   35  A    between atoms: _80  and  _81
REMARK   36  A    between atoms: _80  and  _83
REMARK   37  A    between atoms: _83  and  _84
REMARK   38  A    between atoms: _84  and  _85
REMARK   39  A    between atoms: _85  and  _86
REMARK   40  A    between atoms: _86  and  _87
REMARK   41  A    between atoms: _91  and  _93
REMARK   42  A    between atoms: _93  and  _94
REMARK   43  A    between atoms: _93  and  _96
REMARK   44  A    between atoms: _96  and  _97
REMARK   45  A    between atoms: _103  and  _105
REMARK   46  A    between atoms: _105  and  _106
REMARK   47  A    between atoms: _108  and  _110
REMARK   48  A    between atoms: _110  and  _111
REMARK   49  A    between atoms: _110  and  _113
REMARK   50  A    between atoms: _113  and  _114
REMARK   51  A    between atoms: _116  and  _118
REMARK   52  A    between atoms: _118  and  _119
REMARK   53  A    between atoms: _118  and  _121
REMARK   54  A    between atoms: _121  and  _122
REMARK   55  A    between atoms: _132  and  _134
REMARK   56  A    between atoms: _134  and  _135
REMARK   57  A    between atoms: _134  and  _137
REMARK   58  A    between atoms: _140  and  _142
REMARK   59  A    between atoms: _142  and  _143
REMARK   60  A    between atoms: _142  and  _145
REMARK   61  A    between atoms: _145  and  _146
REMARK   62  A    between atoms: _151  and  _152
REMARK   63  A    between atoms: _154  and  _156
REMARK   64  A    between atoms: _156  and  _157
REMARK   65  A    between atoms: _156  and  _159
REMARK   66  A    between atoms: _159  and  _160
REMARK   67  A    between atoms: _162  and  _164
REMARK   68  A    between atoms: _164  and  _165
REMARK   69  A    between atoms: _167  and  _169
REMARK   70  A    between atoms: _169  and  _170
REMARK   71  A    between atoms: _169  and  _172
REMARK   72  A    between atoms: _172  and  _173
REMARK   73  A    between atoms: _173  and  _174
REMARK   74  A    between atoms: _177  and  _179
REMARK   75  A    between atoms: _179  and  _180
REMARK   76  A    between atoms: _179  and  _182
REMARK   77  A    between atoms: _182  and  _183
REMARK   78  A    between atoms: _183  and  _184
REMARK   79  A    between atoms: _189  and  _191
REMARK   80  A    between atoms: _191  and  _192
REMARK   81  A    between atoms: _191  and  _194
REMARK   82  A    between atoms: _197  and  _199
REMARK   83  A    between atoms: _199  and  _200
REMARK   84  A    between atoms: _199  and  _202
REMARK   85  A    between atoms: _202  and  _203
REMARK   86  A    between atoms: _203  and  _204
REMARK   87  A    between atoms: _209  and  _211
REMARK   88  A    between atoms: _211  and  _212
REMARK   89  A    between atoms: _211  and  _214
REMARK   90  A    between atoms: _214  and  _215
REMARK   91  A    between atoms: _220  and  _222
REMARK   92  A    between atoms: _222  and  _223
REMARK   93  A    between atoms: _222  and  _225
REMARK   94  A    between atoms: _225  and  _226
REMARK   95  A    between atoms: _231  and  _232
REMARK   96  A    between atoms: _234  and  _236
REMARK   97  A    between atoms: _236  and  _237
REMARK   98  A    between atoms: _236  and  _239
REMARK   99  A    between atoms: _239  and  _240
REMARK  100  A    between atoms: _242  and  _244
REMARK  101  A    between atoms: _251  and  _252
REMARK  102  A    between atoms: _256  and  _258
REMARK  103  A    between atoms: _258  and  _259
REMARK  104  A    between atoms: _258  and  _261
REMARK  105  A    between atoms: _261  and  _262
REMARK  106  A    between atoms: _262  and  _263
REMARK  107  A    between atoms: _267  and  _268
REMARK  108  A    between atoms: _273  and  _275
REMARK  109  A    between atoms: _275  and  _276
REMARK  110  A    between atoms: _275  and  _278
REMARK  111  A    between atoms: _278  and  _279
REMARK  112  A    between atoms: _284  and  _285
REMARK  113  A    between atoms: _287  and  _289
REMARK  114  A    between atoms: _289  and  _290
REMARK  115  A    between atoms: _289  and  _292
REMARK  116  A    between atoms: _292  and  _293
REMARK  117  A    between atoms: _296  and  _298
REMARK  118  A    between atoms: _298  and  _299
REMARK  119  A    between atoms: _298  and  _301
REMARK  120  A    between atoms: _301  and  _302
REMARK  121  A    between atoms: _305  and  _307
REMARK  122  A    between atoms: _307  and  _308
REMARK  123  A    between atoms: _307  and  _310
REMARK  124  A    between atoms: _313  and  _315
REMARK  125  A    between atoms: _315  and  _316
REMARK  126  A    between atoms: _315  and  _318
REMARK  127  A    between atoms: _318  and  _319
REMARK  128  A    between atoms: _324  and  _326
REMARK  129  A    between atoms: _326  and  _327
REMARK  130  A    between atoms: _326  and  _329
REMARK  131  A    between atoms: _329  and  _330
REMARK  132  A    between atoms: _333  and  _335
REMARK  133  A    between atoms: _335  and  _336
REMARK  134  A    between atoms: _335  and  _338
REMARK  135  A    between atoms: _338  and  _339
REMARK  136  A    between atoms: _342  and  _344
REMARK  137  A    between atoms: _344  and  _345
REMARK  138  A    between atoms: _344  and  _347
REMARK  139  A    between atoms: _347  and  _348
REMARK  140  A    between atoms: _348  and  _349
REMARK  141  A    between atoms: _354  and  _356
REMARK  142  A    between atoms: _356  and  _357
REMARK  143  A    between atoms: _356  and  _359
REMARK  144  A    between atoms: _359  and  _360
REMARK  145  A    between atoms: _363  and  _365
REMARK  146  A    between atoms: _365  and  _366
REMARK  147  A    between atoms: _365  and  _368
REMARK  148  A    between atoms: _371  and  _373
REMARK  149  A    between atoms: _373  and  _374
REMARK  150  A    between atoms: _373  and  _376
REMARK  151  A    between atoms: _376  and  _377
REMARK  152  A    between atoms: _382  and  _383
REMARK  153  A    between atoms: _385  and  _387
REMARK  154  A    between atoms: _387  and  _388
REMARK  155  A    between atoms: _387  and  _390
REMARK  156  A    between atoms: _390  and  _391
REMARK  157  A    between atoms: _391  and  _392
REMARK  158  A    between atoms: _395  and  _397
REMARK  159  A    between atoms: _397  and  _398
REMARK  160  A    between atoms: _397  and  _400
REMARK  161  A    between atoms: _400  and  _401
REMARK  162  A    between atoms: _401  and  _402
REMARK  163  A    between atoms: _407  and  _409
REMARK  164  A    between atoms: _409  and  _410
REMARK  165  A    between atoms: _409  and  _412
REMARK  166  A    between atoms: _412  and  _413
REMARK  167  A    between atoms: _413  and  _414
REMARK  168  A    between atoms: _414  and  _415
REMARK  169  A    between atoms: _424  and  _426
REMARK  170  A    between atoms: _426  and  _427
REMARK  171  A    between atoms: _426  and  _429
REMARK  172  A    between atoms: _429  and  _430
REMARK  173  A    between atoms: _430  and  _431
REMARK  174  A    between atoms: _431  and  _432
REMARK  175  A    between atoms: _441  and  _443
REMARK  176  A    between atoms: _443  and  _444
REMARK  177  A    between atoms: _443  and  _446
REMARK  178  A    between atoms: _446  and  _447
REMARK  179  A    between atoms: _450  and  _451
REMARK  180  A    between atoms: _456  and  _458
REMARK  181  A    between atoms: _458  and  _459
REMARK  182  A    between atoms: _458  and  _461
REMARK  183  A    between atoms: _461  and  _462
REMARK  184  A    between atoms: _465  and  _467
REMARK  185  A    between atoms: _467  and  _468
REMARK  186  A    between atoms: _471  and  _473
REMARK  187  A    between atoms: _473  and  _474
REMARK  188  A    between atoms: _473  and  _476
REMARK  189  A    between atoms: _479  and  _481
REMARK  190  A    between atoms: _481  and  _482
REMARK  191  A    between atoms: _481  and  _484
REMARK  192  A    between atoms: _484  and  _485
REMARK  193  A    between atoms: _485  and  _486
REMARK  194  A    between atoms: _488  and  _490
REMARK  195  A    between atoms: _490  and  _491
REMARK  196  A    between atoms: _490  and  _493
REMARK  197  A    between atoms: _493  and  _494
REMARK  198  A    between atoms: _500  and  _502
REMARK  199  A    between atoms: _502  and  _503
REMARK  200  A    between atoms: _502  and  _505
REMARK  201  A    between atoms: _505  and  _506
REMARK  202  A    between atoms: _510  and  _511
REMARK  203  A    between atoms: _516  and  _518
REMARK  204  A    between atoms: _518  and  _519
REMARK  205  A    between atoms: _522  and  _524
REMARK  206  A    between atoms: _524  and  _525
REMARK  207  A    between atoms: _524  and  _527
REMARK  208  A    between atoms: _527  and  _528
REMARK  209  A    between atoms: _531  and  _533
REMARK  210  A    between atoms: _533  and  _534
REMARK  211  A    between atoms: _533  and  _536
REMARK  212  A    between atoms: _536  and  _537
REMARK  213  A    between atoms: _539  and  _541
REMARK  214  A    between atoms: _541  and  _542
REMARK  215  A    between atoms: _541  and  _544
REMARK  216  A    between atoms: _544  and  _545
REMARK  217  A    between atoms: _547  and  _549
REMARK  218  A    between atoms: _549  and  _550
REMARK  219  A    between atoms: _549  and  _552
REMARK  220  A    between atoms: _552  and  _553
REMARK  221  A    between atoms: _558  and  _559
REMARK  222  A    between atoms: _561  and  _563
REMARK  223  A    between atoms: _563  and  _564
REMARK  224  A    between atoms: _563  and  _566
REMARK  225  A    between atoms: _566  and  _567
REMARK  226  A    between atoms: _572  and  _573
REMARK  227  A    between atoms: _575  and  _577
REMARK  228  A    between atoms: _577  and  _578
REMARK                            x       y       z     vdW  Elec       q    Type
REMARK                         _______ _______ _______ _____ _____    ______ ____
ROOT
ATOM      1  O   HOH     1      12.349  -9.113 -10.689  0.00  0.00    +0.000 OA
ENDROOT
TORSDOF 0
REMARK  Name = ../refined-set-2016/2byr/2byr_pocket.pdb
REMARK  228 active torsions:
REMARK  status: ('A' for Active; 'I' for Inactive)
REMARK    1  A    between atoms: _1  and  _3
REMARK    2  A    between atoms: _3  and  _4
REMARK    3  A    between atoms: _3  and  _6
REMARK    4  A    between atoms: _6  and  _7
REMARK    5  A    between atoms: _10  and  _12
REMARK    6  A    between atoms: _12  and  _13
REMARK    7  A    between atoms: _12  and  _15
REMARK    8  A    between atoms: _15  and  _16
REMARK    9  A    between atoms: _19  and  _21
REMARK   10  A    between atoms: _21  and  _22
REMARK   11  A    between atoms: _25  and  _27
REMARK   12  A    between atoms: _27  and  _28
REMARK   13  A    between atoms: _27  and  _30
REMARK   14  A    between atoms: _30  and  _31
REMARK   15  A    between atoms: _36  and  _37
REMARK   16  A    between atoms: _39  and  _41
REMARK   17  A    between atoms: _41  and  _42
REMARK   18  A    between atoms: _41  and  _44
REMARK   19  A    between atoms: _44  and  _45
REMARK   20  A    between atoms: _47  and  _49
REMARK   21  A    between atoms: _49  and  _50
REMARK   22  A    between atoms: _49  and  _52
REMARK   23  A    between atoms: _52  and  _53
REMARK   24  A    between atoms: _55  and  _57
REMARK   25  A    between atoms: _57  and  _58
REMARK   26  A    between atoms: _57  and  _60
REMARK   27  A    between atoms: _60  and  _61
REMARK   28  A    between atoms: _61  and  _62
REMARK   29  A    between atoms: _64  and  _66
REMARK   30  A    between atoms: _66  and  _67
REMARK   31  A    between atoms: _70  and  _72
REMARK   32  A    between atoms: _72  and  _73
REMARK   33  A    between atoms: _72  and  _75
REMARK   34  A    between atoms: _78  and  _80
REMARK   35  A    between atoms: _80  and  _81
REMARK   36  A    between atoms: _80  and  _83
REMARK   37  A    between atoms: _83  and  _84
REMARK   38  A    between atoms: _84  and  _85
REMARK   39  A    between atoms: _85  and  _86
REMARK   40  A    between atoms: _86  and  _87
REMARK   41  A    between atoms: _91  and  _93
REMARK   42  A    between atoms: _93  and  _94
REMARK   43  A    between atoms: _93  and  _96
REMARK   44  A    between atoms: _96  and  _97
REMARK   45  A    between atoms: _103  and  _105
REMARK   46  A    between atoms: _105  and  _106
REMARK   47  A    between atoms: _108  and  _110
REMARK   48  A    between atoms: _110  and  _111
REMARK   49  A    between atoms: _110  and  _113
REMARK   50  A    between atoms: _113  and  _114
REMARK   51  A    between atoms: _116  and  _118
REMARK   52  A    between atoms: _118  and  _119
REMARK   53  A    between atoms: _118  and  _121
REMARK   54  A    between atoms: _121  and  _122
REMARK   55  A    between atoms: _132  and  _134
REMARK   56  A    between atoms: _134  and  _135
REMARK   57  A    between atoms: _134  and  _137
REMARK   58  A    between atoms: _140  and  _142
REMARK   59  A    between atoms: _142  and  _143
REMARK   60  A    between atoms: _142  and  _145
REMARK   61  A    between atoms: _145  and  _146
REMARK   62  A    between atoms: _151  and  _152
REMARK   63  A    between atoms: _154  and  _156
REMARK   64  A    between atoms: _156  and  _157
REMARK   65  A    between atoms: _156  and  _159
REMARK   66  A    between atoms: _159  and  _160
REMARK   67  A    between atoms: _162  and  _164
REMARK   68  A    between atoms: _164  and  _165
REMARK   69  A    between atoms: _167  and  _169
REMARK   70  A    between atoms: _169  and  _170
REMARK   71  A    between atoms: _169  and  _172
REMARK   72  A    between atoms: _172  and  _173
REMARK   73  A    between atoms: _173  and  _174
REMARK   74  A    between atoms: _177  and  _179
REMARK   75  A    between atoms: _179  and  _180
REMARK   76  A    between atoms: _179  and  _182
REMARK   77  A    between atoms: _182  and  _183
REMARK   78  A    between atoms: _183  and  _184
REMARK   79  A    between atoms: _189  and  _191
REMARK   80  A    between atoms: _191  and  _192
REMARK   81  A    between atoms: _191  and  _194
REMARK   82  A    between atoms: _197  and  _199
REMARK   83  A    between atoms: _199  and  _200
REMARK   84  A    between atoms: _199  and  _202
REMARK   85  A    between atoms: _202  and  _203
REMARK   86  A    between atoms: _203  and  _204
REMARK   87  A    between atoms: _209  and  _211
REMARK   88  A    between atoms: _211  and  _212
REMARK   89  A    between atoms: _211  and  _214
REMARK   90  A    between atoms: _214  and  _215
REMARK   91  A    between atoms: _220  and  _222
REMARK   92  A    between atoms: _222  and  _223
REMARK   93  A    between atoms: _222  and  _225
REMARK   94  A    between atoms: _225  and  _226
REMARK   95  A    between atoms: _231  and  _232
REMARK   96  A    between atoms: _234  and  _236
REMARK   97  A    between atoms: _236  and  _237
REMARK   98  A    between atoms: _236  and  _239
REMARK   99  A    between atoms: _239  and  _240
REMARK  100  A    between atoms: _242  and  _244
REMARK  101  A    between atoms: _251  and  _252
REMARK  102  A    between atoms: _256  and  _258
REMARK  103  A    between atoms: _258  and  _259
REMARK  104  A    between atoms: _258  and  _261
REMARK  105  A    between atoms: _261  and  _262
REMARK  106  A    between atoms: _262  and  _263
REMARK  107  A    between atoms: _267  and  _268
REMARK  108  A    between atoms: _273  and  _275
REMARK  109  A    between atoms: _275  and  _276
REMARK  110  A    between atoms: _275  and  _278
REMARK  111  A    between atoms: _278  and  _279
REMARK  112  A    between atoms: _284  and  _285
REMARK  113  A    between atoms: _287  and  _289
REMARK  114  A    between atoms: _289  and  _290
REMARK  115  A    between atoms: _289  and  _292
REMARK  116  A    between atoms: _292  and  _293
REMARK  117  A    between atoms: _296  and  _298
REMARK  118  A    between atoms: _298  and  _299
REMARK  119  A    between atoms: _298  and  _301
REMARK  120  A    between atoms: _301  and  _302
REMARK  121  A    between atoms: _305  and  _307
REMARK  122  A    between atoms: _307  and  _308
REMARK  123  A    between atoms: _307  and  _310
REMARK  124  A    between atoms: _313  and  _315
REMARK  125  A    between atoms: _315  and  _316
REMARK  126  A    between atoms: _315  and  _318
REMARK  127  A    between atoms: _318  and  _319
REMARK  128  A    between atoms: _324  and  _326
REMARK  129  A    between atoms: _326  and  _327
REMARK  130  A    between atoms: _326  and  _329
REMARK  131  A    between atoms: _329  and  _330
REMARK  132  A    between atoms: _333  and  _335
REMARK  133  A    between atoms: _335  and  _336
REMARK  134  A    between atoms: _335  and  _338
REMARK  135  A    between atoms: _338  and  _339
REMARK  136  A    between atoms: _342  and  _344
REMARK  137  A    between atoms: _344  and  _345
REMARK  138  A    between atoms: _344  and  _347
REMARK  139  A    between atoms: _347  and  _348
REMARK  140  A    between atoms: _348  and  _349
REMARK  141  A    between atoms: _354  and  _356
REMARK  142  A    between atoms: _356  and  _357
REMARK  143  A    between atoms: _356  and  _359
REMARK  144  A    between atoms: _359  and  _360
REMARK  145  A    between atoms: _363  and  _365
REMARK  146  A    between atoms: _365  and  _366
REMARK  147  A    between atoms: _365  and  _368
REMARK  148  A    between atoms: _371  and  _373
REMARK  149  A    between atoms: _373  and  _374
REMARK  150  A    between atoms: _373  and  _376
REMARK  151  A    between atoms: _376  and  _377
REMARK  152  A    between atoms: _382  and  _383
REMARK  153  A    between atoms: _385  and  _387
REMARK  154  A    between atoms: _387  and  _388
REMARK  155  A    between atoms: _387  and  _390
REMARK  156  A    between atoms: _390  and  _391
REMARK  157  A    between atoms: _391  and  _392
REMARK  158  A    between atoms: _395  and  _397
REMARK  159  A    between atoms: _397  and  _398
REMARK  160  A    between atoms: _397  and  _400
REMARK  161  A    between atoms: _400  and  _401
REMARK  162  A    between atoms: _401  and  _402
REMARK  163  A    between atoms: _407  and  _409
REMARK  164  A    between atoms: _409  and  _410
REMARK  165  A    between atoms: _409  and  _412
REMARK  166  A    between atoms: _412  and  _413
REMARK  167  A    between atoms: _413  and  _414
REMARK  168  A    between atoms: _414  and  _415
REMARK  169  A    between atoms: _424  and  _426
REMARK  170  A    between atoms: _426  and  _427
REMARK  171  A    between atoms: _426  and  _429
REMARK  172  A    between atoms: _429  and  _430
REMARK  173  A    between atoms: _430  and  _431
REMARK  174  A    between atoms: _431  and  _432
REMARK  175  A    between atoms: _441  and  _443
REMARK  176  A    between atoms: _443  and  _444
REMARK  177  A    between atoms: _443  and  _446
REMARK  178  A    between atoms: _446  and  _447
REMARK  179  A    between atoms: _450  and  _451
REMARK  180  A    between atoms: _456  and  _458
REMARK  181  A    between atoms: _458  and  _459
REMARK  182  A    between atoms: _458  and  _461
REMARK  183  A    between atoms: _461  and  _462
REMARK  184  A    between atoms: _465  and  _467
REMARK  185  A    between atoms: _467  and  _468
REMARK  186  A    between atoms: _471  and  _473
REMARK  187  A    between atoms: _473  and  _474
REMARK  188  A    between atoms: _473  and  _476
REMARK  189  A    between atoms: _479  and  _481
REMARK  190  A    between atoms: _481  and  _482
REMARK  191  A    between atoms: _481  and  _484
REMARK  192  A    between atoms: _484  and  _485
REMARK  193  A    between atoms: _485  and  _486
REMARK  194  A    between atoms: _488  and  _490
REMARK  195  A    between atoms: _490  and  _491
REMARK  196  A    between atoms: _490  and  _493
REMARK  197  A    between atoms: _493  and  _494
REMARK  198  A    between atoms: _500  and  _502
REMARK  199  A    between atoms: _502  and  _503
REMARK  200  A    between atoms: _502  and  _505
REMARK  201  A    between atoms: _505  and  _506
REMARK  202  A    between atoms: _510  and  _511
REMARK  203  A    between atoms: _516  and  _518
REMARK  204  A    between atoms: _518  and  _519
REMARK  205  A    between atoms: _522  and  _524
REMARK  206  A    between atoms: _524  and  _525
REMARK  207  A    between atoms: _524  and  _527
REMARK  208  A    between atoms: _527  and  _528
REMARK  209  A    between atoms: _531  and  _533
REMARK  210  A    between atoms: _533  and  _534
REMARK  211  A    between atoms: _533  and  _536
REMARK  212  A    between atoms: _536  and  _537
REMARK  213  A    between atoms: _539  and  _541
REMARK  214  A    between atoms: _541  and  _542
REMARK  215  A    between atoms: _541  and  _544
REMARK  216  A    between atoms: _544  and  _545
REMARK  217  A    between atoms: _547  and  _549
REMARK  218  A    between atoms: _549  and  _550
REMARK  219  A    between atoms: _549  and  _552
REMARK  220  A    between atoms: _552  and  _553
REMARK  221  A    between atoms: _558  and  _559
REMARK  222  A    between atoms: _561  and  _563
REMARK  223  A    between atoms: _563  and  _564
REMARK  224  A    between atoms: _563  and  _566
REMARK  225  A    between atoms: _566  and  _567
REMARK  226  A    between atoms: _572  and  _573
REMARK  227  A    between atoms: _575  and  _577
REMARK  228  A    between atoms: _577  and  _578
REMARK                            x       y       z     vdW  Elec       q    Type
REMARK                         _______ _______ _______ _____ _____    ______ ____
ROOT
ATOM      1  O   HOH     1       1.293  -6.266 -19.864  0.00  0.00    +0.000 OA
ENDROOT
TORSDOF 0
REMARK  Name = ../refined-set-2016/2byr/2byr_pocket.pdb
REMARK  228 active torsions:
REMARK  status: ('A' for Active; 'I' for Inactive)
REMARK    1  A    between atoms: _1  and  _3
REMARK    2  A    between atoms: _3  and  _4
REMARK    3  A    between atoms: _3  and  _6
REMARK    4  A    between atoms: _6  and  _7
REMARK    5  A    between atoms: _10  and  _12
REMARK    6  A    between atoms: _12  and  _13
REMARK    7  A    between atoms: _12  and  _15
REMARK    8  A    between atoms: _15  and  _16
REMARK    9  A    between atoms: _19  and  _21
REMARK   10  A    between atoms: _21  and  _22
REMARK   11  A    between atoms: _25  and  _27
REMARK   12  A    between atoms: _27  and  _28
REMARK   13  A    between atoms: _27  and  _30
REMARK   14  A    between atoms: _30  and  _31
REMARK   15  A    between atoms: _36  and  _37
REMARK   16  A    between atoms: _39  and  _41
REMARK   17  A    between atoms: _41  and  _42
REMARK   18  A    between atoms: _41  and  _44
REMARK   19  A    between atoms: _44  and  _45
REMARK   20  A    between atoms: _47  and  _49
REMARK   21  A    between atoms: _49  and  _50
REMARK   22  A    between atoms: _49  and  _52
REMARK   23  A    between atoms: _52  and  _53
REMARK   24  A    between atoms: _55  and  _57
REMARK   25  A    between atoms: _57  and  _58
REMARK   26  A    between atoms: _57  and  _60
REMARK   27  A    between atoms: _60  and  _61
REMARK   28  A    between atoms: _61  and  _62
REMARK   29  A    between atoms: _64  and  _66
REMARK   30  A    between atoms: _66  and  _67
REMARK   31  A    between atoms: _70  and  _72
REMARK   32  A    between atoms: _72  and  _73
REMARK   33  A    between atoms: _72  and  _75
REMARK   34  A    between atoms: _78  and  _80
REMARK   35  A    between atoms: _80  and  _81
REMARK   36  A    between atoms: _80  and  _83
REMARK   37  A    between atoms: _83  and  _84
REMARK   38  A    between atoms: _84  and  _85
REMARK   39  A    between atoms: _85  and  _86
REMARK   40  A    between atoms: _86  and  _87
REMARK   41  A    between atoms: _91  and  _93
REMARK   42  A    between atoms: _93  and  _94
REMARK   43  A    between atoms: _93  and  _96
REMARK   44  A    between atoms: _96  and  _97
REMARK   45  A    between atoms: _103  and  _105
REMARK   46  A    between atoms: _105  and  _106
REMARK   47  A    between atoms: _108  and  _110
REMARK   48  A    between atoms: _110  and  _111
REMARK   49  A    between atoms: _110  and  _113
REMARK   50  A    between atoms: _113  and  _114
REMARK   51  A    between atoms: _116  and  _118
REMARK   52  A    between atoms: _118  and  _119
REMARK   53  A    between atoms: _118  and  _121
REMARK   54  A    between atoms: _121  and  _122
REMARK   55  A    between atoms: _132  and  _134
REMARK   56  A    between atoms: _134  and  _135
REMARK   57  A    between atoms: _134  and  _137
REMARK   58  A    between atoms: _140  and  _142
REMARK   59  A    between atoms: _142  and  _143
REMARK   60  A    between atoms: _142  and  _145
REMARK   61  A    between atoms: _145  and  _146
REMARK   62  A    between atoms: _151  and  _152
REMARK   63  A    between atoms: _154  and  _156
REMARK   64  A    between atoms: _156  and  _157
REMARK   65  A    between atoms: _156  and  _159
REMARK   66  A    between atoms: _159  and  _160
REMARK   67  A    between atoms: _162  and  _164
REMARK   68  A    between atoms: _164  and  _165
REMARK   69  A    between atoms: _167  and  _169
REMARK   70  A    between atoms: _169  and  _170
REMARK   71  A    between atoms: _169  and  _172
REMARK   72  A    between atoms: _172  and  _173
REMARK   73  A    between atoms: _173  and  _174
REMARK   74  A    between atoms: _177  and  _179
REMARK   75  A    between atoms: _179  and  _180
REMARK   76  A    between atoms: _179  and  _182
REMARK   77  A    between atoms: _182  and  _183
REMARK   78  A    between atoms: _183  and  _184
REMARK   79  A    between atoms: _189  and  _191
REMARK   80  A    between atoms: _191  and  _192
REMARK   81  A    between atoms: _191  and  _194
REMARK   82  A    between atoms: _197  and  _199
REMARK   83  A    between atoms: _199  and  _200
REMARK   84  A    between atoms: _199  and  _202
REMARK   85  A    between atoms: _202  and  _203
REMARK   86  A    between atoms: _203  and  _204
REMARK   87  A    between atoms: _209  and  _211
REMARK   88  A    between atoms: _211  and  _212
REMARK   89  A    between atoms: _211  and  _214
REMARK   90  A    between atoms: _214  and  _215
REMARK   91  A    between atoms: _220  and  _222
REMARK   92  A    between atoms: _222  and  _223
REMARK   93  A    between atoms: _222  and  _225
REMARK   94  A    between atoms: _225  and  _226
REMARK   95  A    between atoms: _231  and  _232
REMARK   96  A    between atoms: _234  and  _236
REMARK   97  A    between atoms: _236  and  _237
REMARK   98  A    between atoms: _236  and  _239
REMARK   99  A    between atoms: _239  and  _240
REMARK  100  A    between atoms: _242  and  _244
REMARK  101  A    between atoms: _251  and  _252
REMARK  102  A    between atoms: _256  and  _258
REMARK  103  A    between atoms: _258  and  _259
REMARK  104  A    between atoms: _258  and  _261
REMARK  105  A    between atoms: _261  and  _262
REMARK  106  A    between atoms: _262  and  _263
REMARK  107  A    between atoms: _267  and  _268
REMARK  108  A    between atoms: _273  and  _275
REMARK  109  A    between atoms: _275  and  _276
REMARK  110  A    between atoms: _275  and  _278
REMARK  111  A    between atoms: _278  and  _279
REMARK  112  A    between atoms: _284  and  _285
REMARK  113  A    between atoms: _287  and  _289
REMARK  114  A    between atoms: _289  and  _290
REMARK  115  A    between atoms: _289  and  _292
REMARK  116  A    between atoms: _292  and  _293
REMARK  117  A    between atoms: _296  and  _298
REMARK  118  A    between atoms: _298  and  _299
REMARK  119  A    between atoms: _298  and  _301
REMARK  120  A    between atoms: _301  and  _302
REMARK  121  A    between atoms: _305  and  _307
REMARK  122  A    between atoms: _307  and  _308
REMARK  123  A    between atoms: _307  and  _310
REMARK  124  A    between atoms: _313  and  _315
REMARK  125  A    between atoms: _315  and  _316
REMARK  126  A    between atoms: _315  and  _318
REMARK  127  A    between atoms: _318  and  _319
REMARK  128  A    between atoms: _324  and  _326
REMARK  129  A    between atoms: _326  and  _327
REMARK  130  A    between atoms: _326  and  _329
REMARK  131  A    between atoms: _329  and  _330
REMARK  132  A    between atoms: _333  and  _335
REMARK  133  A    between atoms: _335  and  _336
REMARK  134  A    between atoms: _335  and  _338
REMARK  135  A    between atoms: _338  and  _339
REMARK  136  A    between atoms: _342  and  _344
REMARK  137  A    between atoms: _344  and  _345
REMARK  138  A    between atoms: _344  and  _347
REMARK  139  A    between atoms: _347  and  _348
REMARK  140  A    between atoms: _348  and  _349
REMARK  141  A    between atoms: _354  and  _356
REMARK  142  A    between atoms: _356  and  _357
REMARK  143  A    between atoms: _356  and  _359
REMARK  144  A    between atoms: _359  and  _360
REMARK  145  A    between atoms: _363  and  _365
REMARK  146  A    between atoms: _365  and  _366
REMARK  147  A    between atoms: _365  and  _368
REMARK  148  A    between atoms: _371  and  _373
REMARK  149  A    between atoms: _373  and  _374
REMARK  150  A    between atoms: _373  and  _376
REMARK  151  A    between atoms: _376  and  _377
REMARK  152  A    between atoms: _382  and  _383
REMARK  153  A    between atoms: _385  and  _387
REMARK  154  A    between atoms: _387  and  _388
REMARK  155  A    between atoms: _387  and  _390
REMARK  156  A    between atoms: _390  and  _391
REMARK  157  A    between atoms: _391  and  _392
REMARK  158  A    between atoms: _395  and  _397
REMARK  159  A    between atoms: _397  and  _398
REMARK  160  A    between atoms: _397  and  _400
REMARK  161  A    between atoms: _400  and  _401
REMARK  162  A    between atoms: _401  and  _402
REMARK  163  A    between atoms: _407  and  _409
REMARK  164  A    between atoms: _409  and  _410
REMARK  165  A    between atoms: _409  and  _412
REMARK  166  A    between atoms: _412  and  _413
REMARK  167  A    between atoms: _413  and  _414
REMARK  168  A    between atoms: _414  and  _415
REMARK  169  A    between atoms: _424  and  _426
REMARK  170  A    between atoms: _426  and  _427
REMARK  171  A    between atoms: _426  and  _429
REMARK  172  A    between atoms: _429  and  _430
REMARK  173  A    between atoms: _430  and  _431
REMARK  174  A    between atoms: _431  and  _432
REMARK  175  A    between atoms: _441  and  _443
REMARK  176  A    between atoms: _443  and  _444
REMARK  177  A    between atoms: _443  and  _446
REMARK  178  A    between atoms: _446  and  _447
REMARK  179  A    between atoms: _450  and  _451
REMARK  180  A    between atoms: _456  and  _458
REMARK  181  A    between atoms: _458  and  _459
REMARK  182  A    between atoms: _458  and  _461
REMARK  183  A    between atoms: _461  and  _462
REMARK  184  A    between atoms: _465  and  _467
REMARK  185  A    between atoms: _467  and  _468
REMARK  186  A    between atoms: _471  and  _473
REMARK  187  A    between atoms: _473  and  _474
REMARK  188  A    between atoms: _473  and  _476
REMARK  189  A    between atoms: _479  and  _481
REMARK  190  A    between atoms: _481  and  _482
REMARK  191  A    between atoms: _481  and  _484
REMARK  192  A    between atoms: _484  and  _485
REMARK  193  A    between atoms: _485  and  _486
REMARK  194  A    between atoms: _488  and  _490
REMARK  195  A    between atoms: _490  and  _491
REMARK  196  A    between atoms: _490  and  _493
REMARK  197  A    between atoms: _493  and  _494
REMARK  198  A    between atoms: _500  and  _502
REMARK  199  A    between atoms: _502  and  _503
REMARK  200  A    between atoms: _502  and  _505
REMARK  201  A    between atoms: _505  and  _506
REMARK  202  A    between atoms: _510  and  _511
REMARK  203  A    between atoms: _516  and  _518
REMARK  204  A    between atoms: _518  and  _519
REMARK  205  A    between atoms: _522  and  _524
REMARK  206  A    between atoms: _524  and  _525
REMARK  207  A    between atoms: _524  and  _527
REMARK  208  A    between atoms: _527  and  _528
REMARK  209  A    between atoms: _531  and  _533
REMARK  210  A    between atoms: _533  and  _534
REMARK  211  A    between atoms: _533  and  _536
REMARK  212  A    between atoms: _536  and  _537
REMARK  213  A    between atoms: _539  and  _541
REMARK  214  A    between atoms: _541  and  _542
REMARK  215  A    between atoms: _541  and  _544
REMARK  216  A    between atoms: _544  and  _545
REMARK  217  A    between atoms: _547  and  _549
REMARK  218  A    between atoms: _549  and  _550
REMARK  219  A    between atoms: _549  and  _552
REMARK  220  A    between atoms: _552  and  _553
REMARK  221  A    between atoms: _558  and  _559
REMARK  222  A    between atoms: _561  and  _563
REMARK  223  A    between atoms: _563  and  _564
REMARK  224  A    between atoms: _563  and  _566
REMARK  225  A    between atoms: _566  and  _567
REMARK  226  A    between atoms: _572  and  _573
REMARK  227  A    between atoms: _575  and  _577
REMARK  228  A    between atoms: _577  and  _578
REMARK                            x       y       z     vdW  Elec       q    Type
REMARK                         _______ _______ _______ _____ _____    ______ ____
ROOT
ATOM      1  O   HOH     1       3.562  -1.876 -15.405  0.00  0.00    +0.000 OA
ENDROOT
TORSDOF 0
REMARK  Name = ../refined-set-2016/2byr/2byr_pocket.pdb
REMARK  228 active torsions:
REMARK  status: ('A' for Active; 'I' for Inactive)
REMARK    1  A    between atoms: _1  and  _3
REMARK    2  A    between atoms: _3  and  _4
REMARK    3  A    between atoms: _3  and  _6
REMARK    4  A    between atoms: _6  and  _7
REMARK    5  A    between atoms: _10  and  _12
REMARK    6  A    between atoms: _12  and  _13
REMARK    7  A    between atoms: _12  and  _15
REMARK    8  A    between atoms: _15  and  _16
REMARK    9  A    between atoms: _19  and  _21
REMARK   10  A    between atoms: _21  and  _22
REMARK   11  A    between atoms: _25  and  _27
REMARK   12  A    between atoms: _27  and  _28
REMARK   13  A    between atoms: _27  and  _30
REMARK   14  A    between atoms: _30  and  _31
REMARK   15  A    between atoms: _36  and  _37
REMARK   16  A    between atoms: _39  and  _41
REMARK   17  A    between atoms: _41  and  _42
REMARK   18  A    between atoms: _41  and  _44
REMARK   19  A    between atoms: _44  and  _45
REMARK   20  A    between atoms: _47  and  _49
REMARK   21  A    between atoms: _49  and  _50
REMARK   22  A    between atoms: _49  and  _52
REMARK   23  A    between atoms: _52  and  _53
REMARK   24  A    between atoms: _55  and  _57
REMARK   25  A    between atoms: _57  and  _58
REMARK   26  A    between atoms: _57  and  _60
REMARK   27  A    between atoms: _60  and  _61
REMARK   28  A    between atoms: _61  and  _62
REMARK   29  A    between atoms: _64  and  _66
REMARK   30  A    between atoms: _66  and  _67
REMARK   31  A    between atoms: _70  and  _72
REMARK   32  A    between atoms: _72  and  _73
REMARK   33  A    between atoms: _72  and  _75
REMARK   34  A    between atoms: _78  and  _80
REMARK   35  A    between atoms: _80  and  _81
REMARK   36  A    between atoms: _80  and  _83
REMARK   37  A    between atoms: _83  and  _84
REMARK   38  A    between atoms: _84  and  _85
REMARK   39  A    between atoms: _85  and  _86
REMARK   40  A    between atoms: _86  and  _87
REMARK   41  A    between atoms: _91  and  _93
REMARK   42  A    between atoms: _93  and  _94
REMARK   43  A    between atoms: _93  and  _96
REMARK   44  A    between atoms: _96  and  _97
REMARK   45  A    between atoms: _103  and  _105
REMARK   46  A    between atoms: _105  and  _106
REMARK   47  A    between atoms: _108  and  _110
REMARK   48  A    between atoms: _110  and  _111
REMARK   49  A    between atoms: _110  and  _113
REMARK   50  A    between atoms: _113  and  _114
REMARK   51  A    between atoms: _116  and  _118
REMARK   52  A    between atoms: _118  and  _119
REMARK   53  A    between atoms: _118  and  _121
REMARK   54  A    between atoms: _121  and  _122
REMARK   55  A    between atoms: _132  and  _134
REMARK   56  A    between atoms: _134  and  _135
REMARK   57  A    between atoms: _134  and  _137
REMARK   58  A    between atoms: _140  and  _142
REMARK   59  A    between atoms: _142  and  _143
REMARK   60  A    between atoms: _142  and  _145
REMARK   61  A    between atoms: _145  and  _146
REMARK   62  A    between atoms: _151  and  _152
REMARK   63  A    between atoms: _154  and  _156
REMARK   64  A    between atoms: _156  and  _157
REMARK   65  A    between atoms: _156  and  _159
REMARK   66  A    between atoms: _159  and  _160
REMARK   67  A    between atoms: _162  and  _164
REMARK   68  A    between atoms: _164  and  _165
REMARK   69  A    between atoms: _167  and  _169
REMARK   70  A    between atoms: _169  and  _170
REMARK   71  A    between atoms: _169  and  _172
REMARK   72  A    between atoms: _172  and  _173
REMARK   73  A    between atoms: _173  and  _174
REMARK   74  A    between atoms: _177  and  _179
REMARK   75  A    between atoms: _179  and  _180
REMARK   76  A    between atoms: _179  and  _182
REMARK   77  A    between atoms: _182  and  _183
REMARK   78  A    between atoms: _183  and  _184
REMARK   79  A    between atoms: _189  and  _191
REMARK   80  A    between atoms: _191  and  _192
REMARK   81  A    between atoms: _191  and  _194
REMARK   82  A    between atoms: _197  and  _199
REMARK   83  A    between atoms: _199  and  _200
REMARK   84  A    between atoms: _199  and  _202
REMARK   85  A    between atoms: _202  and  _203
REMARK   86  A    between atoms: _203  and  _204
REMARK   87  A    between atoms: _209  and  _211
REMARK   88  A    between atoms: _211  and  _212
REMARK   89  A    between atoms: _211  and  _214
REMARK   90  A    between atoms: _214  and  _215
REMARK   91  A    between atoms: _220  and  _222
REMARK   92  A    between atoms: _222  and  _223
REMARK   93  A    between atoms: _222  and  _225
REMARK   94  A    between atoms: _225  and  _226
REMARK   95  A    between atoms: _231  and  _232
REMARK   96  A    between atoms: _234  and  _236
REMARK   97  A    between atoms: _236  and  _237
REMARK   98  A    between atoms: _236  and  _239
REMARK   99  A    between atoms: _239  and  _240
REMARK  100  A    between atoms: _242  and  _244
REMARK  101  A    between atoms: _251  and  _252
REMARK  102  A    between atoms: _256  and  _258
REMARK  103  A    between atoms: _258  and  _259
REMARK  104  A    between atoms: _258  and  _261
REMARK  105  A    between atoms: _261  and  _262
REMARK  106  A    between atoms: _262  and  _263
REMARK  107  A    between atoms: _267  and  _268
REMARK  108  A    between atoms: _273  and  _275
REMARK  109  A    between atoms: _275  and  _276
REMARK  110  A    between atoms: _275  and  _278
REMARK  111  A    between atoms: _278  and  _279
REMARK  112  A    between atoms: _284  and  _285
REMARK  113  A    between atoms: _287  and  _289
REMARK  114  A    between atoms: _289  and  _290
REMARK  115  A    between atoms: _289  and  _292
REMARK  116  A    between atoms: _292  and  _293
REMARK  117  A    between atoms: _296  and  _298
REMARK  118  A    between atoms: _298  and  _299
REMARK  119  A    between atoms: _298  and  _301
REMARK  120  A    between atoms: _301  and  _302
REMARK  121  A    between atoms: _305  and  _307
REMARK  122  A    between atoms: _307  and  _308
REMARK  123  A    between atoms: _307  and  _310
REMARK  124  A    between atoms: _313  and  _315
REMARK  125  A    between atoms: _315  and  _316
REMARK  126  A    between atoms: _315  and  _318
REMARK  127  A    between atoms: _318  and  _319
REMARK  128  A    between atoms: _324  and  _326
REMARK  129  A    between atoms: _326  and  _327
REMARK  130  A    between atoms: _326  and  _329
REMARK  131  A    between atoms: _329  and  _330
REMARK  132  A    between atoms: _333  and  _335
REMARK  133  A    between atoms: _335  and  _336
REMARK  134  A    between atoms: _335  and  _338
REMARK  135  A    between atoms: _338  and  _339
REMARK  136  A    between atoms: _342  and  _344
REMARK  137  A    between atoms: _344  and  _345
REMARK  138  A    between atoms: _344  and  _347
REMARK  139  A    between atoms: _347  and  _348
REMARK  140  A    between atoms: _348  and  _349
REMARK  141  A    between atoms: _354  and  _356
REMARK  142  A    between atoms: _356  and  _357
REMARK  143  A    between atoms: _356  and  _359
REMARK  144  A    between atoms: _359  and  _360
REMARK  145  A    between atoms: _363  and  _365
REMARK  146  A    between atoms: _365  and  _366
REMARK  147  A    between atoms: _365  and  _368
REMARK  148  A    between atoms: _371  and  _373
REMARK  149  A    between atoms: _373  and  _374
REMARK  150  A    between atoms: _373  and  _376
REMARK  151  A    between atoms: _376  and  _377
REMARK  152  A    between atoms: _382  and  _383
REMARK  153  A    between atoms: _385  and  _387
REMARK  154  A    between atoms: _387  and  _388
REMARK  155  A    between atoms: _387  and  _390
REMARK  156  A    between atoms: _390  and  _391
REMARK  157  A    between atoms: _391  and  _392
REMARK  158  A    between atoms: _395  and  _397
REMARK  159  A    between atoms: _397  and  _398
REMARK  160  A    between atoms: _397  and  _400
REMARK  161  A    between atoms: _400  and  _401
REMARK  162  A    between atoms: _401  and  _402
REMARK  163  A    between atoms: _407  and  _409
REMARK  164  A    between atoms: _409  and  _410
REMARK  165  A    between atoms: _409  and  _412
REMARK  166  A    between atoms: _412  and  _413
REMARK  167  A    between atoms: _413  and  _414
REMARK  168  A    between atoms: _414  and  _415
REMARK  169  A    between atoms: _424  and  _426
REMARK  170  A    between atoms: _426  and  _427
REMARK  171  A    between atoms: _426  and  _429
REMARK  172  A    between atoms: _429  and  _430
REMARK  173  A    between atoms: _430  and  _431
REMARK  174  A    between atoms: _431  and  _432
REMARK  175  A    between atoms: _441  and  _443
REMARK  176  A    between atoms: _443  and  _444
REMARK  177  A    between atoms: _443  and  _446
REMARK  178  A    between atoms: _446  and  _447
REMARK  179  A    between atoms: _450  and  _451
REMARK  180  A    between atoms: _456  and  _458
REMARK  181  A    between atoms: _458  and  _459
REMARK  182  A    between atoms: _458  and  _461
REMARK  183  A    between atoms: _461  and  _462
REMARK  184  A    between atoms: _465  and  _467
REMARK  185  A    between atoms: _467  and  _468
REMARK  186  A    between atoms: _471  and  _473
REMARK  187  A    between atoms: _473  and  _474
REMARK  188  A    between atoms: _473  and  _476
REMARK  189  A    between atoms: _479  and  _481
REMARK  190  A    between atoms: _481  and  _482
REMARK  191  A    between atoms: _481  and  _484
REMARK  192  A    between atoms: _484  and  _485
REMARK  193  A    between atoms: _485  and  _486
REMARK  194  A    between atoms: _488  and  _490
REMARK  195  A    between atoms: _490  and  _491
REMARK  196  A    between atoms: _490  and  _493
REMARK  197  A    between atoms: _493  and  _494
REMARK  198  A    between atoms: _500  and  _502
REMARK  199  A    between atoms: _502  and  _503
REMARK  200  A    between atoms: _502  and  _505
REMARK  201  A    between atoms: _505  and  _506
REMARK  202  A    between atoms: _510  and  _511
REMARK  203  A    between atoms: _516  and  _518
REMARK  204  A    between atoms: _518  and  _519
REMARK  205  A    between atoms: _522  and  _524
REMARK  206  A    between atoms: _524  and  _525
REMARK  207  A    between atoms: _524  and  _527
REMARK  208  A    between atoms: _527  and  _528
REMARK  209  A    between atoms: _531  and  _533
REMARK  210  A    between atoms: _533  and  _534
REMARK  211  A    between atoms: _533  and  _536
REMARK  212  A    between atoms: _536  and  _537
REMARK  213  A    between atoms: _539  and  _541
REMARK  214  A    between atoms: _541  and  _542
REMARK  215  A    between atoms: _541  and  _544
REMARK  216  A    between atoms: _544  and  _545
REMARK  217  A    between atoms: _547  and  _549
REMARK  218  A    between atoms: _549  and  _550
REMARK  219  A    between atoms: _549  and  _552
REMARK  220  A    between atoms: _552  and  _553
REMARK  221  A    between atoms: _558  and  _559
REMARK  222  A    between atoms: _561  and  _563
REMARK  223  A    between atoms: _563  and  _564
REMARK  224  A    between atoms: _563  and  _566
REMARK  225  A    between atoms: _566  and  _567
REMARK  226  A    between atoms: _572  and  _573
REMARK  227  A    between atoms: _575  and  _577
REMARK  228  A    between atoms: _577  and  _578
REMARK                            x       y       z     vdW  Elec       q    Type
REMARK                         _______ _______ _______ _____ _____    ______ ____
ROOT
ATOM      1  O   HOH     1      12.155  -2.520 -20.114  0.00  0.00    +0.000 OA
ENDROOT
TORSDOF 0
REMARK  Name = ../refined-set-2016/2byr/2byr_pocket.pdb
REMARK  228 active torsions:
REMARK  status: ('A' for Active; 'I' for Inactive)
REMARK    1  A    between atoms: _1  and  _3
REMARK    2  A    between atoms: _3  and  _4
REMARK    3  A    between atoms: _3  and  _6
REMARK    4  A    between atoms: _6  and  _7
REMARK    5  A    between atoms: _10  and  _12
REMARK    6  A    between atoms: _12  and  _13
REMARK    7  A    between atoms: _12  and  _15
REMARK    8  A    between atoms: _15  and  _16
REMARK    9  A    between atoms: _19  and  _21
REMARK   10  A    between atoms: _21  and  _22
REMARK   11  A    between atoms: _25  and  _27
REMARK   12  A    between atoms: _27  and  _28
REMARK   13  A    between atoms: _27  and  _30
REMARK   14  A    between atoms: _30  and  _31
REMARK   15  A    between atoms: _36  and  _37
REMARK   16  A    between atoms: _39  and  _41
REMARK   17  A    between atoms: _41  and  _42
REMARK   18  A    between atoms: _41  and  _44
REMARK   19  A    between atoms: _44  and  _45
REMARK   20  A    between atoms: _47  and  _49
REMARK   21  A    between atoms: _49  and  _50
REMARK   22  A    between atoms: _49  and  _52
REMARK   23  A    between atoms: _52  and  _53
REMARK   24  A    between atoms: _55  and  _57
REMARK   25  A    between atoms: _57  and  _58
REMARK   26  A    between atoms: _57  and  _60
REMARK   27  A    between atoms: _60  and  _61
REMARK   28  A    between atoms: _61  and  _62
REMARK   29  A    between atoms: _64  and  _66
REMARK   30  A    between atoms: _66  and  _67
REMARK   31  A    between atoms: _70  and  _72
REMARK   32  A    between atoms: _72  and  _73
REMARK   33  A    between atoms: _72  and  _75
REMARK   34  A    between atoms: _78  and  _80
REMARK   35  A    between atoms: _80  and  _81
REMARK   36  A    between atoms: _80  and  _83
REMARK   37  A    between atoms: _83  and  _84
REMARK   38  A    between atoms: _84  and  _85
REMARK   39  A    between atoms: _85  and  _86
REMARK   40  A    between atoms: _86  and  _87
REMARK   41  A    between atoms: _91  and  _93
REMARK   42  A    between atoms: _93  and  _94
REMARK   43  A    between atoms: _93  and  _96
REMARK   44  A    between atoms: _96  and  _97
REMARK   45  A    between atoms: _103  and  _105
REMARK   46  A    between atoms: _105  and  _106
REMARK   47  A    between atoms: _108  and  _110
REMARK   48  A    between atoms: _110  and  _111
REMARK   49  A    between atoms: _110  and  _113
REMARK   50  A    between atoms: _113  and  _114
REMARK   51  A    between atoms: _116  and  _118
REMARK   52  A    between atoms: _118  and  _119
REMARK   53  A    between atoms: _118  and  _121
REMARK   54  A    between atoms: _121  and  _122
REMARK   55  A    between atoms: _132  and  _134
REMARK   56  A    between atoms: _134  and  _135
REMARK   57  A    between atoms: _134  and  _137
REMARK   58  A    between atoms: _140  and  _142
REMARK   59  A    between atoms: _142  and  _143
REMARK   60  A    between atoms: _142  and  _145
REMARK   61  A    between atoms: _145  and  _146
REMARK   62  A    between atoms: _151  and  _152
REMARK   63  A    between atoms: _154  and  _156
REMARK   64  A    between atoms: _156  and  _157
REMARK   65  A    between atoms: _156  and  _159
REMARK   66  A    between atoms: _159  and  _160
REMARK   67  A    between atoms: _162  and  _164
REMARK   68  A    between atoms: _164  and  _165
REMARK   69  A    between atoms: _167  and  _169
REMARK   70  A    between atoms: _169  and  _170
REMARK   71  A    between atoms: _169  and  _172
REMARK   72  A    between atoms: _172  and  _173
REMARK   73  A    between atoms: _173  and  _174
REMARK   74  A    between atoms: _177  and  _179
REMARK   75  A    between atoms: _179  and  _180
REMARK   76  A    between atoms: _179  and  _182
REMARK   77  A    between atoms: _182  and  _183
REMARK   78  A    between atoms: _183  and  _184
REMARK   79  A    between atoms: _189  and  _191
REMARK   80  A    between atoms: _191  and  _192
REMARK   81  A    between atoms: _191  and  _194
REMARK   82  A    between atoms: _197  and  _199
REMARK   83  A    between atoms: _199  and  _200
REMARK   84  A    between atoms: _199  and  _202
REMARK   85  A    between atoms: _202  and  _203
REMARK   86  A    between atoms: _203  and  _204
REMARK   87  A    between atoms: _209  and  _211
REMARK   88  A    between atoms: _211  and  _212
REMARK   89  A    between atoms: _211  and  _214
REMARK   90  A    between atoms: _214  and  _215
REMARK   91  A    between atoms: _220  and  _222
REMARK   92  A    between atoms: _222  and  _223
REMARK   93  A    between atoms: _222  and  _225
REMARK   94  A    between atoms: _225  and  _226
REMARK   95  A    between atoms: _231  and  _232
REMARK   96  A    between atoms: _234  and  _236
REMARK   97  A    between atoms: _236  and  _237
REMARK   98  A    between atoms: _236  and  _239
REMARK   99  A    between atoms: _239  and  _240
REMARK  100  A    between atoms: _242  and  _244
REMARK  101  A    between atoms: _251  and  _252
REMARK  102  A    between atoms: _256  and  _258
REMARK  103  A    between atoms: _258  and  _259
REMARK  104  A    between atoms: _258  and  _261
REMARK  105  A    between atoms: _261  and  _262
REMARK  106  A    between atoms: _262  and  _263
REMARK  107  A    between atoms: _267  and  _268
REMARK  108  A    between atoms: _273  and  _275
REMARK  109  A    between atoms: _275  and  _276
REMARK  110  A    between atoms: _275  and  _278
REMARK  111  A    between atoms: _278  and  _279
REMARK  112  A    between atoms: _284  and  _285
REMARK  113  A    between atoms: _287  and  _289
REMARK  114  A    between atoms: _289  and  _290
REMARK  115  A    between atoms: _289  and  _292
REMARK  116  A    between atoms: _292  and  _293
REMARK  117  A    between atoms: _296  and  _298
REMARK  118  A    between atoms: _298  and  _299
REMARK  119  A    between atoms: _298  and  _301
REMARK  120  A    between atoms: _301  and  _302
REMARK  121  A    between atoms: _305  and  _307
REMARK  122  A    between atoms: _307  and  _308
REMARK  123  A    between atoms: _307  and  _310
REMARK  124  A    between atoms: _313  and  _315
REMARK  125  A    between atoms: _315  and  _316
REMARK  126  A    between atoms: _315  and  _318
REMARK  127  A    between atoms: _318  and  _319
REMARK  128  A    between atoms: _324  and  _326
REMARK  129  A    between atoms: _326  and  _327
REMARK  130  A    between atoms: _326  and  _329
REMARK  131  A    between atoms: _329  and  _330
REMARK  132  A    between atoms: _333  and  _335
REMARK  133  A    between atoms: _335  and  _336
REMARK  134  A    between atoms: _335  and  _338
REMARK  135  A    between atoms: _338  and  _339
REMARK  136  A    between atoms: _342  and  _344
REMARK  137  A    between atoms: _344  and  _345
REMARK  138  A    between atoms: _344  and  _347
REMARK  139  A    between atoms: _347  and  _348
REMARK  140  A    between atoms: _348  and  _349
REMARK  141  A    between atoms: _354  and  _356
REMARK  142  A    between atoms: _356  and  _357
REMARK  143  A    between atoms: _356  and  _359
REMARK  144  A    between atoms: _359  and  _360
REMARK  145  A    between atoms: _363  and  _365
REMARK  146  A    between atoms: _365  and  _366
REMARK  147  A    between atoms: _365  and  _368
REMARK  148  A    between atoms: _371  and  _373
REMARK  149  A    between atoms: _373  and  _374
REMARK  150  A    between atoms: _373  and  _376
REMARK  151  A    between atoms: _376  and  _377
REMARK  152  A    between atoms: _382  and  _383
REMARK  153  A    between atoms: _385  and  _387
REMARK  154  A    between atoms: _387  and  _388
REMARK  155  A    between atoms: _387  and  _390
REMARK  156  A    between atoms: _390  and  _391
REMARK  157  A    between atoms: _391  and  _392
REMARK  158  A    between atoms: _395  and  _397
REMARK  159  A    between atoms: _397  and  _398
REMARK  160  A    between atoms: _397  and  _400
REMARK  161  A    between atoms: _400  and  _401
REMARK  162  A    between atoms: _401  and  _402
REMARK  163  A    between atoms: _407  and  _409
REMARK  164  A    between atoms: _409  and  _410
REMARK  165  A    between atoms: _409  and  _412
REMARK  166  A    between atoms: _412  and  _413
REMARK  167  A    between atoms: _413  and  _414
REMARK  168  A    between atoms: _414  and  _415
REMARK  169  A    between atoms: _424  and  _426
REMARK  170  A    between atoms: _426  and  _427
REMARK  171  A    between atoms: _426  and  _429
REMARK  172  A    between atoms: _429  and  _430
REMARK  173  A    between atoms: _430  and  _431
REMARK  174  A    between atoms: _431  and  _432
REMARK  175  A    between atoms: _441  and  _443
REMARK  176  A    between atoms: _443  and  _444
REMARK  177  A    between atoms: _443  and  _446
REMARK  178  A    between atoms: _446  and  _447
REMARK  179  A    between atoms: _450  and  _451
REMARK  180  A    between atoms: _456  and  _458
REMARK  181  A    between atoms: _458  and  _459
REMARK  182  A    between atoms: _458  and  _461
REMARK  183  A    between atoms: _461  and  _462
REMARK  184  A    between atoms: _465  and  _467
REMARK  185  A    between atoms: _467  and  _468
REMARK  186  A    between atoms: _471  and  _473
REMARK  187  A    between atoms: _473  and  _474
REMARK  188  A    between atoms: _473  and  _476
REMARK  189  A    between atoms: _479  and  _481
REMARK  190  A    between atoms: _481  and  _482
REMARK  191  A    between atoms: _481  and  _484
REMARK  192  A    between atoms: _484  and  _485
REMARK  193  A    between atoms: _485  and  _486
REMARK  194  A    between atoms: _488  and  _490
REMARK  195  A    between atoms: _490  and  _491
REMARK  196  A    between atoms: _490  and  _493
REMARK  197  A    between atoms: _493  and  _494
REMARK  198  A    between atoms: _500  and  _502
REMARK  199  A    between atoms: _502  and  _503
REMARK  200  A    between atoms: _502  and  _505
REMARK  201  A    between atoms: _505  and  _506
REMARK  202  A    between atoms: _510  and  _511
REMARK  203  A    between atoms: _516  and  _518
REMARK  204  A    between atoms: _518  and  _519
REMARK  205  A    between atoms: _522  and  _524
REMARK  206  A    between atoms: _524  and  _525
REMARK  207  A    between atoms: _524  and  _527
REMARK  208  A    between atoms: _527  and  _528
REMARK  209  A    between atoms: _531  and  _533
REMARK  210  A    between atoms: _533  and  _534
REMARK  211  A    between atoms: _533  and  _536
REMARK  212  A    between atoms: _536  and  _537
REMARK  213  A    between atoms: _539  and  _541
REMARK  214  A    between atoms: _541  and  _542
REMARK  215  A    between atoms: _541  and  _544
REMARK  216  A    between atoms: _544  and  _545
REMARK  217  A    between atoms: _547  and  _549
REMARK  218  A    between atoms: _549  and  _550
REMARK  219  A    between atoms: _549  and  _552
REMARK  220  A    between atoms: _552  and  _553
REMARK  221  A    between atoms: _558  and  _559
REMARK  222  A    between atoms: _561  and  _563
REMARK  223  A    between atoms: _563  and  _564
REMARK  224  A    between atoms: _563  and  _566
REMARK  225  A    between atoms: _566  and  _567
REMARK  226  A    between atoms: _572  and  _573
REMARK  227  A    between atoms: _575  and  _577
REMARK  228  A    between atoms: _577  and  _578
REMARK                            x       y       z     vdW  Elec       q    Type
REMARK                         _______ _______ _______ _____ _____    ______ ____
ROOT
ATOM      1  O   HOH     1      14.724   0.199 -11.925  0.00  0.00    +0.000 OA
ENDROOT
TORSDOF 0
REMARK  Name = ../refined-set-2016/2byr/2byr_pocket.pdb
REMARK  228 active torsions:
REMARK  status: ('A' for Active; 'I' for Inactive)
REMARK    1  A    between atoms: _1  and  _3
REMARK    2  A    between atoms: _3  and  _4
REMARK    3  A    between atoms: _3  and  _6
REMARK    4  A    between atoms: _6  and  _7
REMARK    5  A    between atoms: _10  and  _12
REMARK    6  A    between atoms: _12  and  _13
REMARK    7  A    between atoms: _12  and  _15
REMARK    8  A    between atoms: _15  and  _16
REMARK    9  A    between atoms: _19  and  _21
REMARK   10  A    between atoms: _21  and  _22
REMARK   11  A    between atoms: _25  and  _27
REMARK   12  A    between atoms: _27  and  _28
REMARK   13  A    between atoms: _27  and  _30
REMARK   14  A    between atoms: _30  and  _31
REMARK   15  A    between atoms: _36  and  _37
REMARK   16  A    between atoms: _39  and  _41
REMARK   17  A    between atoms: _41  and  _42
REMARK   18  A    between atoms: _41  and  _44
REMARK   19  A    between atoms: _44  and  _45
REMARK   20  A    between atoms: _47  and  _49
REMARK   21  A    between atoms: _49  and  _50
REMARK   22  A    between atoms: _49  and  _52
REMARK   23  A    between atoms: _52  and  _53
REMARK   24  A    between atoms: _55  and  _57
REMARK   25  A    between atoms: _57  and  _58
REMARK   26  A    between atoms: _57  and  _60
REMARK   27  A    between atoms: _60  and  _61
REMARK   28  A    between atoms: _61  and  _62
REMARK   29  A    between atoms: _64  and  _66
REMARK   30  A    between atoms: _66  and  _67
REMARK   31  A    between atoms: _70  and  _72
REMARK   32  A    between atoms: _72  and  _73
REMARK   33  A    between atoms: _72  and  _75
REMARK   34  A    between atoms: _78  and  _80
REMARK   35  A    between atoms: _80  and  _81
REMARK   36  A    between atoms: _80  and  _83
REMARK   37  A    between atoms: _83  and  _84
REMARK   38  A    between atoms: _84  and  _85
REMARK   39  A    between atoms: _85  and  _86
REMARK   40  A    between atoms: _86  and  _87
REMARK   41  A    between atoms: _91  and  _93
REMARK   42  A    between atoms: _93  and  _94
REMARK   43  A    between atoms: _93  and  _96
REMARK   44  A    between atoms: _96  and  _97
REMARK   45  A    between atoms: _103  and  _105
REMARK   46  A    between atoms: _105  and  _106
REMARK   47  A    between atoms: _108  and  _110
REMARK   48  A    between atoms: _110  and  _111
REMARK   49  A    between atoms: _110  and  _113
REMARK   50  A    between atoms: _113  and  _114
REMARK   51  A    between atoms: _116  and  _118
REMARK   52  A    between atoms: _118  and  _119
REMARK   53  A    between atoms: _118  and  _121
REMARK   54  A    between atoms: _121  and  _122
REMARK   55  A    between atoms: _132  and  _134
REMARK   56  A    between atoms: _134  and  _135
REMARK   57  A    between atoms: _134  and  _137
REMARK   58  A    between atoms: _140  and  _142
REMARK   59  A    between atoms: _142  and  _143
REMARK   60  A    between atoms: _142  and  _145
REMARK   61  A    between atoms: _145  and  _146
REMARK   62  A    between atoms: _151  and  _152
REMARK   63  A    between atoms: _154  and  _156
REMARK   64  A    between atoms: _156  and  _157
REMARK   65  A    between atoms: _156  and  _159
REMARK   66  A    between atoms: _159  and  _160
REMARK   67  A    between atoms: _162  and  _164
REMARK   68  A    between atoms: _164  and  _165
REMARK   69  A    between atoms: _167  and  _169
REMARK   70  A    between atoms: _169  and  _170
REMARK   71  A    between atoms: _169  and  _172
REMARK   72  A    between atoms: _172  and  _173
REMARK   73  A    between atoms: _173  and  _174
REMARK   74  A    between atoms: _177  and  _179
REMARK   75  A    between atoms: _179  and  _180
REMARK   76  A    between atoms: _179  and  _182
REMARK   77  A    between atoms: _182  and  _183
REMARK   78  A    between atoms: _183  and  _184
REMARK   79  A    between atoms: _189  and  _191
REMARK   80  A    between atoms: _191  and  _192
REMARK   81  A    between atoms: _191  and  _194
REMARK   82  A    between atoms: _197  and  _199
REMARK   83  A    between atoms: _199  and  _200
REMARK   84  A    between atoms: _199  and  _202
REMARK   85  A    between atoms: _202  and  _203
REMARK   86  A    between atoms: _203  and  _204
REMARK   87  A    between atoms: _209  and  _211
REMARK   88  A    between atoms: _211  and  _212
REMARK   89  A    between atoms: _211  and  _214
REMARK   90  A    between atoms: _214  and  _215
REMARK   91  A    between atoms: _220  and  _222
REMARK   92  A    between atoms: _222  and  _223
REMARK   93  A    between atoms: _222  and  _225
REMARK   94  A    between atoms: _225  and  _226
REMARK   95  A    between atoms: _231  and  _232
REMARK   96  A    between atoms: _234  and  _236
REMARK   97  A    between atoms: _236  and  _237
REMARK   98  A    between atoms: _236  and  _239
REMARK   99  A    between atoms: _239  and  _240
REMARK  100  A    between atoms: _242  and  _244
REMARK  101  A    between atoms: _251  and  _252
REMARK  102  A    between atoms: _256  and  _258
REMARK  103  A    between atoms: _258  and  _259
REMARK  104  A    between atoms: _258  and  _261
REMARK  105  A    between atoms: _261  and  _262
REMARK  106  A    between atoms: _262  and  _263
REMARK  107  A    between atoms: _267  and  _268
REMARK  108  A    between atoms: _273  and  _275
REMARK  109  A    between atoms: _275  and  _276
REMARK  110  A    between atoms: _275  and  _278
REMARK  111  A    between atoms: _278  and  _279
REMARK  112  A    between atoms: _284  and  _285
REMARK  113  A    between atoms: _287  and  _289
REMARK  114  A    between atoms: _289  and  _290
REMARK  115  A    between atoms: _289  and  _292
REMARK  116  A    between atoms: _292  and  _293
REMARK  117  A    between atoms: _296  and  _298
REMARK  118  A    between atoms: _298  and  _299
REMARK  119  A    between atoms: _298  and  _301
REMARK  120  A    between atoms: _301  and  _302
REMARK  121  A    between atoms: _305  and  _307
REMARK  122  A    between atoms: _307  and  _308
REMARK  123  A    between atoms: _307  and  _310
REMARK  124  A    between atoms: _313  and  _315
REMARK  125  A    between atoms: _315  and  _316
REMARK  126  A    between atoms: _315  and  _318
REMARK  127  A    between atoms: _318  and  _319
REMARK  128  A    between atoms: _324  and  _326
REMARK  129  A    between atoms: _326  and  _327
REMARK  130  A    between atoms: _326  and  _329
REMARK  131  A    between atoms: _329  and  _330
REMARK  132  A    between atoms: _333  and  _335
REMARK  133  A    between atoms: _335  and  _336
REMARK  134  A    between atoms: _335  and  _338
REMARK  135  A    between atoms: _338  and  _339
REMARK  136  A    between atoms: _342  and  _344
REMARK  137  A    between atoms: _344  and  _345
REMARK  138  A    between atoms: _344  and  _347
REMARK  139  A    between atoms: _347  and  _348
REMARK  140  A    between atoms: _348  and  _349
REMARK  141  A    between atoms: _354  and  _356
REMARK  142  A    between atoms: _356  and  _357
REMARK  143  A    between atoms: _356  and  _359
REMARK  144  A    between atoms: _359  and  _360
REMARK  145  A    between atoms: _363  and  _365
REMARK  146  A    between atoms: _365  and  _366
REMARK  147  A    between atoms: _365  and  _368
REMARK  148  A    between atoms: _371  and  _373
REMARK  149  A    between atoms: _373  and  _374
REMARK  150  A    between atoms: _373  and  _376
REMARK  151  A    between atoms: _376  and  _377
REMARK  152  A    between atoms: _382  and  _383
REMARK  153  A    between atoms: _385  and  _387
REMARK  154  A    between atoms: _387  and  _388
REMARK  155  A    between atoms: _387  and  _390
REMARK  156  A    between atoms: _390  and  _391
REMARK  157  A    between atoms: _391  and  _392
REMARK  158  A    between atoms: _395  and  _397
REMARK  159  A    between atoms: _397  and  _398
REMARK  160  A    between atoms: _397  and  _400
REMARK  161  A    between atoms: _400  and  _401
REMARK  162  A    between atoms: _401  and  _402
REMARK  163  A    between atoms: _407  and  _409
REMARK  164  A    between atoms: _409  and  _410
REMARK  165  A    between atoms: _409  and  _412
REMARK  166  A    between atoms: _412  and  _413
REMARK  167  A    between atoms: _413  and  _414
REMARK  168  A    between atoms: _414  and  _415
REMARK  169  A    between atoms: _424  and  _426
REMARK  170  A    between atoms: _426  and  _427
REMARK  171  A    between atoms: _426  and  _429
REMARK  172  A    between atoms: _429  and  _430
REMARK  173  A    between atoms: _430  and  _431
REMARK  174  A    between atoms: _431  and  _432
REMARK  175  A    between atoms: _441  and  _443
REMARK  176  A    between atoms: _443  and  _444
REMARK  177  A    between atoms: _443  and  _446
REMARK  178  A    between atoms: _446  and  _447
REMARK  179  A    between atoms: _450  and  _451
REMARK  180  A    between atoms: _456  and  _458
REMARK  181  A    between atoms: _458  and  _459
REMARK  182  A    between atoms: _458  and  _461
REMARK  183  A    between atoms: _461  and  _462
REMARK  184  A    between atoms: _465  and  _467
REMARK  185  A    between atoms: _467  and  _468
REMARK  186  A    between atoms: _471  and  _473
REMARK  187  A    between atoms: _473  and  _474
REMARK  188  A    between atoms: _473  and  _476
REMARK  189  A    between atoms: _479  and  _481
REMARK  190  A    between atoms: _481  and  _482
REMARK  191  A    between atoms: _481  and  _484
REMARK  192  A    between atoms: _484  and  _485
REMARK  193  A    between atoms: _485  and  _486
REMARK  194  A    between atoms: _488  and  _490
REMARK  195  A    between atoms: _490  and  _491
REMARK  196  A    between atoms: _490  and  _493
REMARK  197  A    between atoms: _493  and  _494
REMARK  198  A    between atoms: _500  and  _502
REMARK  199  A    between atoms: _502  and  _503
REMARK  200  A    between atoms: _502  and  _505
REMARK  201  A    between atoms: _505  and  _506
REMARK  202  A    between atoms: _510  and  _511
REMARK  203  A    between atoms: _516  and  _518
REMARK  204  A    between atoms: _518  and  _519
REMARK  205  A    between atoms: _522  and  _524
REMARK  206  A    between atoms: _524  and  _525
REMARK  207  A    between atoms: _524  and  _527
REMARK  208  A    between atoms: _527  and  _528
REMARK  209  A    between atoms: _531  and  _533
REMARK  210  A    between atoms: _533  and  _534
REMARK  211  A    between atoms: _533  and  _536
REMARK  212  A    between atoms: _536  and  _537
REMARK  213  A    between atoms: _539  and  _541
REMARK  214  A    between atoms: _541  and  _542
REMARK  215  A    between atoms: _541  and  _544
REMARK  216  A    between atoms: _544  and  _545
REMARK  217  A    between atoms: _547  and  _549
REMARK  218  A    between atoms: _549  and  _550
REMARK  219  A    between atoms: _549  and  _552
REMARK  220  A    between atoms: _552  and  _553
REMARK  221  A    between atoms: _558  and  _559
REMARK  222  A    between atoms: _561  and  _563
REMARK  223  A    between atoms: _563  and  _564
REMARK  224  A    between atoms: _563  and  _566
REMARK  225  A    between atoms: _566  and  _567
REMARK  226  A    between atoms: _572  and  _573
REMARK  227  A    between atoms: _575  and  _577
REMARK  228  A    between atoms: _577  and  _578
REMARK                            x       y       z     vdW  Elec       q    Type
REMARK                         _______ _______ _______ _____ _____    ______ ____
ROOT
ATOM      1  O   HOH     1       8.347  -6.349 -12.237  0.00  0.00    +0.000 OA
ENDROOT
TORSDOF 0
REMARK  Name = ../refined-set-2016/2byr/2byr_pocket.pdb
REMARK  228 active torsions:
REMARK  status: ('A' for Active; 'I' for Inactive)
REMARK    1  A    between atoms: _1  and  _3
REMARK    2  A    between atoms: _3  and  _4
REMARK    3  A    between atoms: _3  and  _6
REMARK    4  A    between atoms: _6  and  _7
REMARK    5  A    between atoms: _10  and  _12
REMARK    6  A    between atoms: _12  and  _13
REMARK    7  A    between atoms: _12  and  _15
REMARK    8  A    between atoms: _15  and  _16
REMARK    9  A    between atoms: _19  and  _21
REMARK   10  A    between atoms: _21  and  _22
REMARK   11  A    between atoms: _25  and  _27
REMARK   12  A    between atoms: _27  and  _28
REMARK   13  A    between atoms: _27  and  _30
REMARK   14  A    between atoms: _30  and  _31
REMARK   15  A    between atoms: _36  and  _37
REMARK   16  A    between atoms: _39  and  _41
REMARK   17  A    between atoms: _41  and  _42
REMARK   18  A    between atoms: _41  and  _44
REMARK   19  A    between atoms: _44  and  _45
REMARK   20  A    between atoms: _47  and  _49
REMARK   21  A    between atoms: _49  and  _50
REMARK   22  A    between atoms: _49  and  _52
REMARK   23  A    between atoms: _52  and  _53
REMARK   24  A    between atoms: _55  and  _57
REMARK   25  A    between atoms: _57  and  _58
REMARK   26  A    between atoms: _57  and  _60
REMARK   27  A    between atoms: _60  and  _61
REMARK   28  A    between atoms: _61  and  _62
REMARK   29  A    between atoms: _64  and  _66
REMARK   30  A    between atoms: _66  and  _67
REMARK   31  A    between atoms: _70  and  _72
REMARK   32  A    between atoms: _72  and  _73
REMARK   33  A    between atoms: _72  and  _75
REMARK   34  A    between atoms: _78  and  _80
REMARK   35  A    between atoms: _80  and  _81
REMARK   36  A    between atoms: _80  and  _83
REMARK   37  A    between atoms: _83  and  _84
REMARK   38  A    between atoms: _84  and  _85
REMARK   39  A    between atoms: _85  and  _86
REMARK   40  A    between atoms: _86  and  _87
REMARK   41  A    between atoms: _91  and  _93
REMARK   42  A    between atoms: _93  and  _94
REMARK   43  A    between atoms: _93  and  _96
REMARK   44  A    between atoms: _96  and  _97
REMARK   45  A    between atoms: _103  and  _105
REMARK   46  A    between atoms: _105  and  _106
REMARK   47  A    between atoms: _108  and  _110
REMARK   48  A    between atoms: _110  and  _111
REMARK   49  A    between atoms: _110  and  _113
REMARK   50  A    between atoms: _113  and  _114
REMARK   51  A    between atoms: _116  and  _118
REMARK   52  A    between atoms: _118  and  _119
REMARK   53  A    between atoms: _118  and  _121
REMARK   54  A    between atoms: _121  and  _122
REMARK   55  A    between atoms: _132  and  _134
REMARK   56  A    between atoms: _134  and  _135
REMARK   57  A    between atoms: _134  and  _137
REMARK   58  A    between atoms: _140  and  _142
REMARK   59  A    between atoms: _142  and  _143
REMARK   60  A    between atoms: _142  and  _145
REMARK   61  A    between atoms: _145  and  _146
REMARK   62  A    between atoms: _151  and  _152
REMARK   63  A    between atoms: _154  and  _156
REMARK   64  A    between atoms: _156  and  _157
REMARK   65  A    between atoms: _156  and  _159
REMARK   66  A    between atoms: _159  and  _160
REMARK   67  A    between atoms: _162  and  _164
REMARK   68  A    between atoms: _164  and  _165
REMARK   69  A    between atoms: _167  and  _169
REMARK   70  A    between atoms: _169  and  _170
REMARK   71  A    between atoms: _169  and  _172
REMARK   72  A    between atoms: _172  and  _173
REMARK   73  A    between atoms: _173  and  _174
REMARK   74  A    between atoms: _177  and  _179
REMARK   75  A    between atoms: _179  and  _180
REMARK   76  A    between atoms: _179  and  _182
REMARK   77  A    between atoms: _182  and  _183
REMARK   78  A    between atoms: _183  and  _184
REMARK   79  A    between atoms: _189  and  _191
REMARK   80  A    between atoms: _191  and  _192
REMARK   81  A    between atoms: _191  and  _194
REMARK   82  A    between atoms: _197  and  _199
REMARK   83  A    between atoms: _199  and  _200
REMARK   84  A    between atoms: _199  and  _202
REMARK   85  A    between atoms: _202  and  _203
REMARK   86  A    between atoms: _203  and  _204
REMARK   87  A    between atoms: _209  and  _211
REMARK   88  A    between atoms: _211  and  _212
REMARK   89  A    between atoms: _211  and  _214
REMARK   90  A    between atoms: _214  and  _215
REMARK   91  A    between atoms: _220  and  _222
REMARK   92  A    between atoms: _222  and  _223
REMARK   93  A    between atoms: _222  and  _225
REMARK   94  A    between atoms: _225  and  _226
REMARK   95  A    between atoms: _231  and  _232
REMARK   96  A    between atoms: _234  and  _236
REMARK   97  A    between atoms: _236  and  _237
REMARK   98  A    between atoms: _236  and  _239
REMARK   99  A    between atoms: _239  and  _240
REMARK  100  A    between atoms: _242  and  _244
REMARK  101  A    between atoms: _251  and  _252
REMARK  102  A    between atoms: _256  and  _258
REMARK  103  A    between atoms: _258  and  _259
REMARK  104  A    between atoms: _258  and  _261
REMARK  105  A    between atoms: _261  and  _262
REMARK  106  A    between atoms: _262  and  _263
REMARK  107  A    between atoms: _267  and  _268
REMARK  108  A    between atoms: _273  and  _275
REMARK  109  A    between atoms: _275  and  _276
REMARK  110  A    between atoms: _275  and  _278
REMARK  111  A    between atoms: _278  and  _279
REMARK  112  A    between atoms: _284  and  _285
REMARK  113  A    between atoms: _287  and  _289
REMARK  114  A    between atoms: _289  and  _290
REMARK  115  A    between atoms: _289  and  _292
REMARK  116  A    between atoms: _292  and  _293
REMARK  117  A    between atoms: _296  and  _298
REMARK  118  A    between atoms: _298  and  _299
REMARK  119  A    between atoms: _298  and  _301
REMARK  120  A    between atoms: _301  and  _302
REMARK  121  A    between atoms: _305  and  _307
REMARK  122  A    between atoms: _307  and  _308
REMARK  123  A    between atoms: _307  and  _310
REMARK  124  A    between atoms: _313  and  _315
REMARK  125  A    between atoms: _315  and  _316
REMARK  126  A    between atoms: _315  and  _318
REMARK  127  A    between atoms: _318  and  _319
REMARK  128  A    between atoms: _324  and  _326
REMARK  129  A    between atoms: _326  and  _327
REMARK  130  A    between atoms: _326  and  _329
REMARK  131  A    between atoms: _329  and  _330
REMARK  132  A    between atoms: _333  and  _335
REMARK  133  A    between atoms: _335  and  _336
REMARK  134  A    between atoms: _335  and  _338
REMARK  135  A    between atoms: _338  and  _339
REMARK  136  A    between atoms: _342  and  _344
REMARK  137  A    between atoms: _344  and  _345
REMARK  138  A    between atoms: _344  and  _347
REMARK  139  A    between atoms: _347  and  _348
REMARK  140  A    between atoms: _348  and  _349
REMARK  141  A    between atoms: _354  and  _356
REMARK  142  A    between atoms: _356  and  _357
REMARK  143  A    between atoms: _356  and  _359
REMARK  144  A    between atoms: _359  and  _360
REMARK  145  A    between atoms: _363  and  _365
REMARK  146  A    between atoms: _365  and  _366
REMARK  147  A    between atoms: _365  and  _368
REMARK  148  A    between atoms: _371  and  _373
REMARK  149  A    between atoms: _373  and  _374
REMARK  150  A    between atoms: _373  and  _376
REMARK  151  A    between atoms: _376  and  _377
REMARK  152  A    between atoms: _382  and  _383
REMARK  153  A    between atoms: _385  and  _387
REMARK  154  A    between atoms: _387  and  _388
REMARK  155  A    between atoms: _387  and  _390
REMARK  156  A    between atoms: _390  and  _391
REMARK  157  A    between atoms: _391  and  _392
REMARK  158  A    between atoms: _395  and  _397
REMARK  159  A    between atoms: _397  and  _398
REMARK  160  A    between atoms: _397  and  _400
REMARK  161  A    between atoms: _400  and  _401
REMARK  162  A    between atoms: _401  and  _402
REMARK  163  A    between atoms: _407  and  _409
REMARK  164  A    between atoms: _409  and  _410
REMARK  165  A    between atoms: _409  and  _412
REMARK  166  A    between atoms: _412  and  _413
REMARK  167  A    between atoms: _413  and  _414
REMARK  168  A    between atoms: _414  and  _415
REMARK  169  A    between atoms: _424  and  _426
REMARK  170  A    between atoms: _426  and  _427
REMARK  171  A    between atoms: _426  and  _429
REMARK  172  A    between atoms: _429  and  _430
REMARK  173  A    between atoms: _430  and  _431
REMARK  174  A    between atoms: _431  and  _432
REMARK  175  A    between atoms: _441  and  _443
REMARK  176  A    between atoms: _443  and  _444
REMARK  177  A    between atoms: _443  and  _446
REMARK  178  A    between atoms: _446  and  _447
REMARK  179  A    between atoms: _450  and  _451
REMARK  180  A    between atoms: _456  and  _458
REMARK  181  A    between atoms: _458  and  _459
REMARK  182  A    between atoms: _458  and  _461
REMARK  183  A    between atoms: _461  and  _462
REMARK  184  A    between atoms: _465  and  _467
REMARK  185  A    between atoms: _467  and  _468
REMARK  186  A    between atoms: _471  and  _473
REMARK  187  A    between atoms: _473  and  _474
REMARK  188  A    between atoms: _473  and  _476
REMARK  189  A    between atoms: _479  and  _481
REMARK  190  A    between atoms: _481  and  _482
REMARK  191  A    between atoms: _481  and  _484
REMARK  192  A    between atoms: _484  and  _485
REMARK  193  A    between atoms: _485  and  _486
REMARK  194  A    between atoms: _488  and  _490
REMARK  195  A    between atoms: _490  and  _491
REMARK  196  A    between atoms: _490  and  _493
REMARK  197  A    between atoms: _493  and  _494
REMARK  198  A    between atoms: _500  and  _502
REMARK  199  A    between atoms: _502  and  _503
REMARK  200  A    between atoms: _502  and  _505
REMARK  201  A    between atoms: _505  and  _506
REMARK  202  A    between atoms: _510  and  _511
REMARK  203  A    between atoms: _516  and  _518
REMARK  204  A    between atoms: _518  and  _519
REMARK  205  A    between atoms: _522  and  _524
REMARK  206  A    between atoms: _524  and  _525
REMARK  207  A    between atoms: _524  and  _527
REMARK  208  A    between atoms: _527  and  _528
REMARK  209  A    between atoms: _531  and  _533
REMARK  210  A    between atoms: _533  and  _534
REMARK  211  A    between atoms: _533  and  _536
REMARK  212  A    between atoms: _536  and  _537
REMARK  213  A    between atoms: _539  and  _541
REMARK  214  A    between atoms: _541  and  _542
REMARK  215  A    between atoms: _541  and  _544
REMARK  216  A    between atoms: _544  and  _545
REMARK  217  A    between atoms: _547  and  _549
REMARK  218  A    between atoms: _549  and  _550
REMARK  219  A    between atoms: _549  and  _552
REMARK  220  A    between atoms: _552  and  _553
REMARK  221  A    between atoms: _558  and  _559
REMARK  222  A    between atoms: _561  and  _563
REMARK  223  A    between atoms: _563  and  _564
REMARK  224  A    between atoms: _563  and  _566
REMARK  225  A    between atoms: _566  and  _567
REMARK  226  A    between atoms: _572  and  _573
REMARK  227  A    between atoms: _575  and  _577
REMARK  228  A    between atoms: _577  and  _578
REMARK                            x       y       z     vdW  Elec       q    Type
REMARK                         _______ _______ _______ _____ _____    ______ ____
ROOT
ATOM      1  O   HOH     1       9.874  -9.396 -10.090  0.00  0.00    +0.000 OA
ENDROOT
TORSDOF 0
REMARK  Name = ../refined-set-2016/2byr/2byr_pocket.pdb
REMARK  228 active torsions:
REMARK  status: ('A' for Active; 'I' for Inactive)
REMARK    1  A    between atoms: _1  and  _3
REMARK    2  A    between atoms: _3  and  _4
REMARK    3  A    between atoms: _3  and  _6
REMARK    4  A    between atoms: _6  and  _7
REMARK    5  A    between atoms: _10  and  _12
REMARK    6  A    between atoms: _12  and  _13
REMARK    7  A    between atoms: _12  and  _15
REMARK    8  A    between atoms: _15  and  _16
REMARK    9  A    between atoms: _19  and  _21
REMARK   10  A    between atoms: _21  and  _22
REMARK   11  A    between atoms: _25  and  _27
REMARK   12  A    between atoms: _27  and  _28
REMARK   13  A    between atoms: _27  and  _30
REMARK   14  A    between atoms: _30  and  _31
REMARK   15  A    between atoms: _36  and  _37
REMARK   16  A    between atoms: _39  and  _41
REMARK   17  A    between atoms: _41  and  _42
REMARK   18  A    between atoms: _41  and  _44
REMARK   19  A    between atoms: _44  and  _45
REMARK   20  A    between atoms: _47  and  _49
REMARK   21  A    between atoms: _49  and  _50
REMARK   22  A    between atoms: _49  and  _52
REMARK   23  A    between atoms: _52  and  _53
REMARK   24  A    between atoms: _55  and  _57
REMARK   25  A    between atoms: _57  and  _58
REMARK   26  A    between atoms: _57  and  _60
REMARK   27  A    between atoms: _60  and  _61
REMARK   28  A    between atoms: _61  and  _62
REMARK   29  A    between atoms: _64  and  _66
REMARK   30  A    between atoms: _66  and  _67
REMARK   31  A    between atoms: _70  and  _72
REMARK   32  A    between atoms: _72  and  _73
REMARK   33  A    between atoms: _72  and  _75
REMARK   34  A    between atoms: _78  and  _80
REMARK   35  A    between atoms: _80  and  _81
REMARK   36  A    between atoms: _80  and  _83
REMARK   37  A    between atoms: _83  and  _84
REMARK   38  A    between atoms: _84  and  _85
REMARK   39  A    between atoms: _85  and  _86
REMARK   40  A    between atoms: _86  and  _87
REMARK   41  A    between atoms: _91  and  _93
REMARK   42  A    between atoms: _93  and  _94
REMARK   43  A    between atoms: _93  and  _96
REMARK   44  A    between atoms: _96  and  _97
REMARK   45  A    between atoms: _103  and  _105
REMARK   46  A    between atoms: _105  and  _106
REMARK   47  A    between atoms: _108  and  _110
REMARK   48  A    between atoms: _110  and  _111
REMARK   49  A    between atoms: _110  and  _113
REMARK   50  A    between atoms: _113  and  _114
REMARK   51  A    between atoms: _116  and  _118
REMARK   52  A    between atoms: _118  and  _119
REMARK   53  A    between atoms: _118  and  _121
REMARK   54  A    between atoms: _121  and  _122
REMARK   55  A    between atoms: _132  and  _134
REMARK   56  A    between atoms: _134  and  _135
REMARK   57  A    between atoms: _134  and  _137
REMARK   58  A    between atoms: _140  and  _142
REMARK   59  A    between atoms: _142  and  _143
REMARK   60  A    between atoms: _142  and  _145
REMARK   61  A    between atoms: _145  and  _146
REMARK   62  A    between atoms: _151  and  _152
REMARK   63  A    between atoms: _154  and  _156
REMARK   64  A    between atoms: _156  and  _157
REMARK   65  A    between atoms: _156  and  _159
REMARK   66  A    between atoms: _159  and  _160
REMARK   67  A    between atoms: _162  and  _164
REMARK   68  A    between atoms: _164  and  _165
REMARK   69  A    between atoms: _167  and  _169
REMARK   70  A    between atoms: _169  and  _170
REMARK   71  A    between atoms: _169  and  _172
REMARK   72  A    between atoms: _172  and  _173
REMARK   73  A    between atoms: _173  and  _174
REMARK   74  A    between atoms: _177  and  _179
REMARK   75  A    between atoms: _179  and  _180
REMARK   76  A    between atoms: _179  and  _182
REMARK   77  A    between atoms: _182  and  _183
REMARK   78  A    between atoms: _183  and  _184
REMARK   79  A    between atoms: _189  and  _191
REMARK   80  A    between atoms: _191  and  _192
REMARK   81  A    between atoms: _191  and  _194
REMARK   82  A    between atoms: _197  and  _199
REMARK   83  A    between atoms: _199  and  _200
REMARK   84  A    between atoms: _199  and  _202
REMARK   85  A    between atoms: _202  and  _203
REMARK   86  A    between atoms: _203  and  _204
REMARK   87  A    between atoms: _209  and  _211
REMARK   88  A    between atoms: _211  and  _212
REMARK   89  A    between atoms: _211  and  _214
REMARK   90  A    between atoms: _214  and  _215
REMARK   91  A    between atoms: _220  and  _222
REMARK   92  A    between atoms: _222  and  _223
REMARK   93  A    between atoms: _222  and  _225
REMARK   94  A    between atoms: _225  and  _226
REMARK   95  A    between atoms: _231  and  _232
REMARK   96  A    between atoms: _234  and  _236
REMARK   97  A    between atoms: _236  and  _237
REMARK   98  A    between atoms: _236  and  _239
REMARK   99  A    between atoms: _239  and  _240
REMARK  100  A    between atoms: _242  and  _244
REMARK  101  A    between atoms: _251  and  _252
REMARK  102  A    between atoms: _256  and  _258
REMARK  103  A    between atoms: _258  and  _259
REMARK  104  A    between atoms: _258  and  _261
REMARK  105  A    between atoms: _261  and  _262
REMARK  106  A    between atoms: _262  and  _263
REMARK  107  A    between atoms: _267  and  _268
REMARK  108  A    between atoms: _273  and  _275
REMARK  109  A    between atoms: _275  and  _276
REMARK  110  A    between atoms: _275  and  _278
REMARK  111  A    between atoms: _278  and  _279
REMARK  112  A    between atoms: _284  and  _285
REMARK  113  A    between atoms: _287  and  _289
REMARK  114  A    between atoms: _289  and  _290
REMARK  115  A    between atoms: _289  and  _292
REMARK  116  A    between atoms: _292  and  _293
REMARK  117  A    between atoms: _296  and  _298
REMARK  118  A    between atoms: _298  and  _299
REMARK  119  A    between atoms: _298  and  _301
REMARK  120  A    between atoms: _301  and  _302
REMARK  121  A    between atoms: _305  and  _307
REMARK  122  A    between atoms: _307  and  _308
REMARK  123  A    between atoms: _307  and  _310
REMARK  124  A    between atoms: _313  and  _315
REMARK  125  A    between atoms: _315  and  _316
REMARK  126  A    between atoms: _315  and  _318
REMARK  127  A    between atoms: _318  and  _319
REMARK  128  A    between atoms: _324  and  _326
REMARK  129  A    between atoms: _326  and  _327
REMARK  130  A    between atoms: _326  and  _329
REMARK  131  A    between atoms: _329  and  _330
REMARK  132  A    between atoms: _333  and  _335
REMARK  133  A    between atoms: _335  and  _336
REMARK  134  A    between atoms: _335  and  _338
REMARK  135  A    between atoms: _338  and  _339
REMARK  136  A    between atoms: _342  and  _344
REMARK  137  A    between atoms: _344  and  _345
REMARK  138  A    between atoms: _344  and  _347
REMARK  139  A    between atoms: _347  and  _348
REMARK  140  A    between atoms: _348  and  _349
REMARK  141  A    between atoms: _354  and  _356
REMARK  142  A    between atoms: _356  and  _357
REMARK  143  A    between atoms: _356  and  _359
REMARK  144  A    between atoms: _359  and  _360
REMARK  145  A    between atoms: _363  and  _365
REMARK  146  A    between atoms: _365  and  _366
REMARK  147  A    between atoms: _365  and  _368
REMARK  148  A    between atoms: _371  and  _373
REMARK  149  A    between atoms: _373  and  _374
REMARK  150  A    between atoms: _373  and  _376
REMARK  151  A    between atoms: _376  and  _377
REMARK  152  A    between atoms: _382  and  _383
REMARK  153  A    between atoms: _385  and  _387
REMARK  154  A    between atoms: _387  and  _388
REMARK  155  A    between atoms: _387  and  _390
REMARK  156  A    between atoms: _390  and  _391
REMARK  157  A    between atoms: _391  and  _392
REMARK  158  A    between atoms: _395  and  _397
REMARK  159  A    between atoms: _397  and  _398
REMARK  160  A    between atoms: _397  and  _400
REMARK  161  A    between atoms: _400  and  _401
REMARK  162  A    between atoms: _401  and  _402
REMARK  163  A    between atoms: _407  and  _409
REMARK  164  A    between atoms: _409  and  _410
REMARK  165  A    between atoms: _409  and  _412
REMARK  166  A    between atoms: _412  and  _413
REMARK  167  A    between atoms: _413  and  _414
REMARK  168  A    between atoms: _414  and  _415
REMARK  169  A    between atoms: _424  and  _426
REMARK  170  A    between atoms: _426  and  _427
REMARK  171  A    between atoms: _426  and  _429
REMARK  172  A    between atoms: _429  and  _430
REMARK  173  A    between atoms: _430  and  _431
REMARK  174  A    between atoms: _431  and  _432
REMARK  175  A    between atoms: _441  and  _443
REMARK  176  A    between atoms: _443  and  _444
REMARK  177  A    between atoms: _443  and  _446
REMARK  178  A    between atoms: _446  and  _447
REMARK  179  A    between atoms: _450  and  _451
REMARK  180  A    between atoms: _456  and  _458
REMARK  181  A    between atoms: _458  and  _459
REMARK  182  A    between atoms: _458  and  _461
REMARK  183  A    between atoms: _461  and  _462
REMARK  184  A    between atoms: _465  and  _467
REMARK  185  A    between atoms: _467  and  _468
REMARK  186  A    between atoms: _471  and  _473
REMARK  187  A    between atoms: _473  and  _474
REMARK  188  A    between atoms: _473  and  _476
REMARK  189  A    between atoms: _479  and  _481
REMARK  190  A    between atoms: _481  and  _482
REMARK  191  A    between atoms: _481  and  _484
REMARK  192  A    between atoms: _484  and  _485
REMARK  193  A    between atoms: _485  and  _486
REMARK  194  A    between atoms: _488  and  _490
REMARK  195  A    between atoms: _490  and  _491
REMARK  196  A    between atoms: _490  and  _493
REMARK  197  A    between atoms: _493  and  _494
REMARK  198  A    between atoms: _500  and  _502
REMARK  199  A    between atoms: _502  and  _503
REMARK  200  A    between atoms: _502  and  _505
REMARK  201  A    between atoms: _505  and  _506
REMARK  202  A    between atoms: _510  and  _511
REMARK  203  A    between atoms: _516  and  _518
REMARK  204  A    between atoms: _518  and  _519
REMARK  205  A    between atoms: _522  and  _524
REMARK  206  A    between atoms: _524  and  _525
REMARK  207  A    between atoms: _524  and  _527
REMARK  208  A    between atoms: _527  and  _528
REMARK  209  A    between atoms: _531  and  _533
REMARK  210  A    between atoms: _533  and  _534
REMARK  211  A    between atoms: _533  and  _536
REMARK  212  A    between atoms: _536  and  _537
REMARK  213  A    between atoms: _539  and  _541
REMARK  214  A    between atoms: _541  and  _542
REMARK  215  A    between atoms: _541  and  _544
REMARK  216  A    between atoms: _544  and  _545
REMARK  217  A    between atoms: _547  and  _549
REMARK  218  A    between atoms: _549  and  _550
REMARK  219  A    between atoms: _549  and  _552
REMARK  220  A    between atoms: _552  and  _553
REMARK  221  A    between atoms: _558  and  _559
REMARK  222  A    between atoms: _561  and  _563
REMARK  223  A    between atoms: _563  and  _564
REMARK  224  A    between atoms: _563  and  _566
REMARK  225  A    between atoms: _566  and  _567
REMARK  226  A    between atoms: _572  and  _573
REMARK  227  A    between atoms: _575  and  _577
REMARK  228  A    between atoms: _577  and  _578
REMARK                            x       y       z     vdW  Elec       q    Type
REMARK                         _______ _______ _______ _____ _____    ______ ____
ROOT
ATOM      1  O   HOH     1      -2.314  -6.136 -10.959  0.00  0.00    +0.000 OA
ENDROOT
TORSDOF 0
REMARK  Name = ../refined-set-2016/2byr/2byr_pocket.pdb
REMARK  228 active torsions:
REMARK  status: ('A' for Active; 'I' for Inactive)
REMARK    1  A    between atoms: _1  and  _3
REMARK    2  A    between atoms: _3  and  _4
REMARK    3  A    between atoms: _3  and  _6
REMARK    4  A    between atoms: _6  and  _7
REMARK    5  A    between atoms: _10  and  _12
REMARK    6  A    between atoms: _12  and  _13
REMARK    7  A    between atoms: _12  and  _15
REMARK    8  A    between atoms: _15  and  _16
REMARK    9  A    between atoms: _19  and  _21
REMARK   10  A    between atoms: _21  and  _22
REMARK   11  A    between atoms: _25  and  _27
REMARK   12  A    between atoms: _27  and  _28
REMARK   13  A    between atoms: _27  and  _30
REMARK   14  A    between atoms: _30  and  _31
REMARK   15  A    between atoms: _36  and  _37
REMARK   16  A    between atoms: _39  and  _41
REMARK   17  A    between atoms: _41  and  _42
REMARK   18  A    between atoms: _41  and  _44
REMARK   19  A    between atoms: _44  and  _45
REMARK   20  A    between atoms: _47  and  _49
REMARK   21  A    between atoms: _49  and  _50
REMARK   22  A    between atoms: _49  and  _52
REMARK   23  A    between atoms: _52  and  _53
REMARK   24  A    between atoms: _55  and  _57
REMARK   25  A    between atoms: _57  and  _58
REMARK   26  A    between atoms: _57  and  _60
REMARK   27  A    between atoms: _60  and  _61
REMARK   28  A    between atoms: _61  and  _62
REMARK   29  A    between atoms: _64  and  _66
REMARK   30  A    between atoms: _66  and  _67
REMARK   31  A    between atoms: _70  and  _72
REMARK   32  A    between atoms: _72  and  _73
REMARK   33  A    between atoms: _72  and  _75
REMARK   34  A    between atoms: _78  and  _80
REMARK   35  A    between atoms: _80  and  _81
REMARK   36  A    between atoms: _80  and  _83
REMARK   37  A    between atoms: _83  and  _84
REMARK   38  A    between atoms: _84  and  _85
REMARK   39  A    between atoms: _85  and  _86
REMARK   40  A    between atoms: _86  and  _87
REMARK   41  A    between atoms: _91  and  _93
REMARK   42  A    between atoms: _93  and  _94
REMARK   43  A    between atoms: _93  and  _96
REMARK   44  A    between atoms: _96  and  _97
REMARK   45  A    between atoms: _103  and  _105
REMARK   46  A    between atoms: _105  and  _106
REMARK   47  A    between atoms: _108  and  _110
REMARK   48  A    between atoms: _110  and  _111
REMARK   49  A    between atoms: _110  and  _113
REMARK   50  A    between atoms: _113  and  _114
REMARK   51  A    between atoms: _116  and  _118
REMARK   52  A    between atoms: _118  and  _119
REMARK   53  A    between atoms: _118  and  _121
REMARK   54  A    between atoms: _121  and  _122
REMARK   55  A    between atoms: _132  and  _134
REMARK   56  A    between atoms: _134  and  _135
REMARK   57  A    between atoms: _134  and  _137
REMARK   58  A    between atoms: _140  and  _142
REMARK   59  A    between atoms: _142  and  _143
REMARK   60  A    between atoms: _142  and  _145
REMARK   61  A    between atoms: _145  and  _146
REMARK   62  A    between atoms: _151  and  _152
REMARK   63  A    between atoms: _154  and  _156
REMARK   64  A    between atoms: _156  and  _157
REMARK   65  A    between atoms: _156  and  _159
REMARK   66  A    between atoms: _159  and  _160
REMARK   67  A    between atoms: _162  and  _164
REMARK   68  A    between atoms: _164  and  _165
REMARK   69  A    between atoms: _167  and  _169
REMARK   70  A    between atoms: _169  and  _170
REMARK   71  A    between atoms: _169  and  _172
REMARK   72  A    between atoms: _172  and  _173
REMARK   73  A    between atoms: _173  and  _174
REMARK   74  A    between atoms: _177  and  _179
REMARK   75  A    between atoms: _179  and  _180
REMARK   76  A    between atoms: _179  and  _182
REMARK   77  A    between atoms: _182  and  _183
REMARK   78  A    between atoms: _183  and  _184
REMARK   79  A    between atoms: _189  and  _191
REMARK   80  A    between atoms: _191  and  _192
REMARK   81  A    between atoms: _191  and  _194
REMARK   82  A    between atoms: _197  and  _199
REMARK   83  A    between atoms: _199  and  _200
REMARK   84  A    between atoms: _199  and  _202
REMARK   85  A    between atoms: _202  and  _203
REMARK   86  A    between atoms: _203  and  _204
REMARK   87  A    between atoms: _209  and  _211
REMARK   88  A    between atoms: _211  and  _212
REMARK   89  A    between atoms: _211  and  _214
REMARK   90  A    between atoms: _214  and  _215
REMARK   91  A    between atoms: _220  and  _222
REMARK   92  A    between atoms: _222  and  _223
REMARK   93  A    between atoms: _222  and  _225
REMARK   94  A    between atoms: _225  and  _226
REMARK   95  A    between atoms: _231  and  _232
REMARK   96  A    between atoms: _234  and  _236
REMARK   97  A    between atoms: _236  and  _237
REMARK   98  A    between atoms: _236  and  _239
REMARK   99  A    between atoms: _239  and  _240
REMARK  100  A    between atoms: _242  and  _244
REMARK  101  A    between atoms: _251  and  _252
REMARK  102  A    between atoms: _256  and  _258
REMARK  103  A    between atoms: _258  and  _259
REMARK  104  A    between atoms: _258  and  _261
REMARK  105  A    between atoms: _261  and  _262
REMARK  106  A    between atoms: _262  and  _263
REMARK  107  A    between atoms: _267  and  _268
REMARK  108  A    between atoms: _273  and  _275
REMARK  109  A    between atoms: _275  and  _276
REMARK  110  A    between atoms: _275  and  _278
REMARK  111  A    between atoms: _278  and  _279
REMARK  112  A    between atoms: _284  and  _285
REMARK  113  A    between atoms: _287  and  _289
REMARK  114  A    between atoms: _289  and  _290
REMARK  115  A    between atoms: _289  and  _292
REMARK  116  A    between atoms: _292  and  _293
REMARK  117  A    between atoms: _296  and  _298
REMARK  118  A    between atoms: _298  and  _299
REMARK  119  A    between atoms: _298  and  _301
REMARK  120  A    between atoms: _301  and  _302
REMARK  121  A    between atoms: _305  and  _307
REMARK  122  A    between atoms: _307  and  _308
REMARK  123  A    between atoms: _307  and  _310
REMARK  124  A    between atoms: _313  and  _315
REMARK  125  A    between atoms: _315  and  _316
REMARK  126  A    between atoms: _315  and  _318
REMARK  127  A    between atoms: _318  and  _319
REMARK  128  A    between atoms: _324  and  _326
REMARK  129  A    between atoms: _326  and  _327
REMARK  130  A    between atoms: _326  and  _329
REMARK  131  A    between atoms: _329  and  _330
REMARK  132  A    between atoms: _333  and  _335
REMARK  133  A    between atoms: _335  and  _336
REMARK  134  A    between atoms: _335  and  _338
REMARK  135  A    between atoms: _338  and  _339
REMARK  136  A    between atoms: _342  and  _344
REMARK  137  A    between atoms: _344  and  _345
REMARK  138  A    between atoms: _344  and  _347
REMARK  139  A    between atoms: _347  and  _348
REMARK  140  A    between atoms: _348  and  _349
REMARK  141  A    between atoms: _354  and  _356
REMARK  142  A    between atoms: _356  and  _357
REMARK  143  A    between atoms: _356  and  _359
REMARK  144  A    between atoms: _359  and  _360
REMARK  145  A    between atoms: _363  and  _365
REMARK  146  A    between atoms: _365  and  _366
REMARK  147  A    between atoms: _365  and  _368
REMARK  148  A    between atoms: _371  and  _373
REMARK  149  A    between atoms: _373  and  _374
REMARK  150  A    between atoms: _373  and  _376
REMARK  151  A    between atoms: _376  and  _377
REMARK  152  A    between atoms: _382  and  _383
REMARK  153  A    between atoms: _385  and  _387
REMARK  154  A    between atoms: _387  and  _388
REMARK  155  A    between atoms: _387  and  _390
REMARK  156  A    between atoms: _390  and  _391
REMARK  157  A    between atoms: _391  and  _392
REMARK  158  A    between atoms: _395  and  _397
REMARK  159  A    between atoms: _397  and  _398
REMARK  160  A    between atoms: _397  and  _400
REMARK  161  A    between atoms: _400  and  _401
REMARK  162  A    between atoms: _401  and  _402
REMARK  163  A    between atoms: _407  and  _409
REMARK  164  A    between atoms: _409  and  _410
REMARK  165  A    between atoms: _409  and  _412
REMARK  166  A    between atoms: _412  and  _413
REMARK  167  A    between atoms: _413  and  _414
REMARK  168  A    between atoms: _414  and  _415
REMARK  169  A    between atoms: _424  and  _426
REMARK  170  A    between atoms: _426  and  _427
REMARK  171  A    between atoms: _426  and  _429
REMARK  172  A    between atoms: _429  and  _430
REMARK  173  A    between atoms: _430  and  _431
REMARK  174  A    between atoms: _431  and  _432
REMARK  175  A    between atoms: _441  and  _443
REMARK  176  A    between atoms: _443  and  _444
REMARK  177  A    between atoms: _443  and  _446
REMARK  178  A    between atoms: _446  and  _447
REMARK  179  A    between atoms: _450  and  _451
REMARK  180  A    between atoms: _456  and  _458
REMARK  181  A    between atoms: _458  and  _459
REMARK  182  A    between atoms: _458  and  _461
REMARK  183  A    between atoms: _461  and  _462
REMARK  184  A    between atoms: _465  and  _467
REMARK  185  A    between atoms: _467  and  _468
REMARK  186  A    between atoms: _471  and  _473
REMARK  187  A    between atoms: _473  and  _474
REMARK  188  A    between atoms: _473  and  _476
REMARK  189  A    between atoms: _479  and  _481
REMARK  190  A    between atoms: _481  and  _482
REMARK  191  A    between atoms: _481  and  _484
REMARK  192  A    between atoms: _484  and  _485
REMARK  193  A    between atoms: _485  and  _486
REMARK  194  A    between atoms: _488  and  _490
REMARK  195  A    between atoms: _490  and  _491
REMARK  196  A    between atoms: _490  and  _493
REMARK  197  A    between atoms: _493  and  _494
REMARK  198  A    between atoms: _500  and  _502
REMARK  199  A    between atoms: _502  and  _503
REMARK  200  A    between atoms: _502  and  _505
REMARK  201  A    between atoms: _505  and  _506
REMARK  202  A    between atoms: _510  and  _511
REMARK  203  A    between atoms: _516  and  _518
REMARK  204  A    between atoms: _518  and  _519
REMARK  205  A    between atoms: _522  and  _524
REMARK  206  A    between atoms: _524  and  _525
REMARK  207  A    between atoms: _524  and  _527
REMARK  208  A    between atoms: _527  and  _528
REMARK  209  A    between atoms: _531  and  _533
REMARK  210  A    between atoms: _533  and  _534
REMARK  211  A    between atoms: _533  and  _536
REMARK  212  A    between atoms: _536  and  _537
REMARK  213  A    between atoms: _539  and  _541
REMARK  214  A    between atoms: _541  and  _542
REMARK  215  A    between atoms: _541  and  _544
REMARK  216  A    between atoms: _544  and  _545
REMARK  217  A    between atoms: _547  and  _549
REMARK  218  A    between atoms: _549  and  _550
REMARK  219  A    between atoms: _549  and  _552
REMARK  220  A    between atoms: _552  and  _553
REMARK  221  A    between atoms: _558  and  _559
REMARK  222  A    between atoms: _561  and  _563
REMARK  223  A    between atoms: _563  and  _564
REMARK  224  A    between atoms: _563  and  _566
REMARK  225  A    between atoms: _566  and  _567
REMARK  226  A    between atoms: _572  and  _573
REMARK  227  A    between atoms: _575  and  _577
REMARK  228  A    between atoms: _577  and  _578
REMARK                            x       y       z     vdW  Elec       q    Type
REMARK                         _______ _______ _______ _____ _____    ______ ____
ROOT
ATOM      1  O   HOH     1      -1.791   5.084 -14.508  0.00  0.00    +0.000 OA
ENDROOT
TORSDOF 0
REMARK  Name = ../refined-set-2016/2byr/2byr_pocket.pdb
REMARK  228 active torsions:
REMARK  status: ('A' for Active; 'I' for Inactive)
REMARK    1  A    between atoms: _1  and  _3
REMARK    2  A    between atoms: _3  and  _4
REMARK    3  A    between atoms: _3  and  _6
REMARK    4  A    between atoms: _6  and  _7
REMARK    5  A    between atoms: _10  and  _12
REMARK    6  A    between atoms: _12  and  _13
REMARK    7  A    between atoms: _12  and  _15
REMARK    8  A    between atoms: _15  and  _16
REMARK    9  A    between atoms: _19  and  _21
REMARK   10  A    between atoms: _21  and  _22
REMARK   11  A    between atoms: _25  and  _27
REMARK   12  A    between atoms: _27  and  _28
REMARK   13  A    between atoms: _27  and  _30
REMARK   14  A    between atoms: _30  and  _31
REMARK   15  A    between atoms: _36  and  _37
REMARK   16  A    between atoms: _39  and  _41
REMARK   17  A    between atoms: _41  and  _42
REMARK   18  A    between atoms: _41  and  _44
REMARK   19  A    between atoms: _44  and  _45
REMARK   20  A    between atoms: _47  and  _49
REMARK   21  A    between atoms: _49  and  _50
REMARK   22  A    between atoms: _49  and  _52
REMARK   23  A    between atoms: _52  and  _53
REMARK   24  A    between atoms: _55  and  _57
REMARK   25  A    between atoms: _57  and  _58
REMARK   26  A    between atoms: _57  and  _60
REMARK   27  A    between atoms: _60  and  _61
REMARK   28  A    between atoms: _61  and  _62
REMARK   29  A    between atoms: _64  and  _66
REMARK   30  A    between atoms: _66  and  _67
REMARK   31  A    between atoms: _70  and  _72
REMARK   32  A    between atoms: _72  and  _73
REMARK   33  A    between atoms: _72  and  _75
REMARK   34  A    between atoms: _78  and  _80
REMARK   35  A    between atoms: _80  and  _81
REMARK   36  A    between atoms: _80  and  _83
REMARK   37  A    between atoms: _83  and  _84
REMARK   38  A    between atoms: _84  and  _85
REMARK   39  A    between atoms: _85  and  _86
REMARK   40  A    between atoms: _86  and  _87
REMARK   41  A    between atoms: _91  and  _93
REMARK   42  A    between atoms: _93  and  _94
REMARK   43  A    between atoms: _93  and  _96
REMARK   44  A    between atoms: _96  and  _97
REMARK   45  A    between atoms: _103  and  _105
REMARK   46  A    between atoms: _105  and  _106
REMARK   47  A    between atoms: _108  and  _110
REMARK   48  A    between atoms: _110  and  _111
REMARK   49  A    between atoms: _110  and  _113
REMARK   50  A    between atoms: _113  and  _114
REMARK   51  A    between atoms: _116  and  _118
REMARK   52  A    between atoms: _118  and  _119
REMARK   53  A    between atoms: _118  and  _121
REMARK   54  A    between atoms: _121  and  _122
REMARK   55  A    between atoms: _132  and  _134
REMARK   56  A    between atoms: _134  and  _135
REMARK   57  A    between atoms: _134  and  _137
REMARK   58  A    between atoms: _140  and  _142
REMARK   59  A    between atoms: _142  and  _143
REMARK   60  A    between atoms: _142  and  _145
REMARK   61  A    between atoms: _145  and  _146
REMARK   62  A    between atoms: _151  and  _152
REMARK   63  A    between atoms: _154  and  _156
REMARK   64  A    between atoms: _156  and  _157
REMARK   65  A    between atoms: _156  and  _159
REMARK   66  A    between atoms: _159  and  _160
REMARK   67  A    between atoms: _162  and  _164
REMARK   68  A    between atoms: _164  and  _165
REMARK   69  A    between atoms: _167  and  _169
REMARK   70  A    between atoms: _169  and  _170
REMARK   71  A    between atoms: _169  and  _172
REMARK   72  A    between atoms: _172  and  _173
REMARK   73  A    between atoms: _173  and  _174
REMARK   74  A    between atoms: _177  and  _179
REMARK   75  A    between atoms: _179  and  _180
REMARK   76  A    between atoms: _179  and  _182
REMARK   77  A    between atoms: _182  and  _183
REMARK   78  A    between atoms: _183  and  _184
REMARK   79  A    between atoms: _189  and  _191
REMARK   80  A    between atoms: _191  and  _192
REMARK   81  A    between atoms: _191  and  _194
REMARK   82  A    between atoms: _197  and  _199
REMARK   83  A    between atoms: _199  and  _200
REMARK   84  A    between atoms: _199  and  _202
REMARK   85  A    between atoms: _202  and  _203
REMARK   86  A    between atoms: _203  and  _204
REMARK   87  A    between atoms: _209  and  _211
REMARK   88  A    between atoms: _211  and  _212
REMARK   89  A    between atoms: _211  and  _214
REMARK   90  A    between atoms: _214  and  _215
REMARK   91  A    between atoms: _220  and  _222
REMARK   92  A    between atoms: _222  and  _223
REMARK   93  A    between atoms: _222  and  _225
REMARK   94  A    between atoms: _225  and  _226
REMARK   95  A    between atoms: _231  and  _232
REMARK   96  A    between atoms: _234  and  _236
REMARK   97  A    between atoms: _236  and  _237
REMARK   98  A    between atoms: _236  and  _239
REMARK   99  A    between atoms: _239  and  _240
REMARK  100  A    between atoms: _242  and  _244
REMARK  101  A    between atoms: _251  and  _252
REMARK  102  A    between atoms: _256  and  _258
REMARK  103  A    between atoms: _258  and  _259
REMARK  104  A    between atoms: _258  and  _261
REMARK  105  A    between atoms: _261  and  _262
REMARK  106  A    between atoms: _262  and  _263
REMARK  107  A    between atoms: _267  and  _268
REMARK  108  A    between atoms: _273  and  _275
REMARK  109  A    between atoms: _275  and  _276
REMARK  110  A    between atoms: _275  and  _278
REMARK  111  A    between atoms: _278  and  _279
REMARK  112  A    between atoms: _284  and  _285
REMARK  113  A    between atoms: _287  and  _289
REMARK  114  A    between atoms: _289  and  _290
REMARK  115  A    between atoms: _289  and  _292
REMARK  116  A    between atoms: _292  and  _293
REMARK  117  A    between atoms: _296  and  _298
REMARK  118  A    between atoms: _298  and  _299
REMARK  119  A    between atoms: _298  and  _301
REMARK  120  A    between atoms: _301  and  _302
REMARK  121  A    between atoms: _305  and  _307
REMARK  122  A    between atoms: _307  and  _308
REMARK  123  A    between atoms: _307  and  _310
REMARK  124  A    between atoms: _313  and  _315
REMARK  125  A    between atoms: _315  and  _316
REMARK  126  A    between atoms: _315  and  _318
REMARK  127  A    between atoms: _318  and  _319
REMARK  128  A    between atoms: _324  and  _326
REMARK  129  A    between atoms: _326  and  _327
REMARK  130  A    between atoms: _326  and  _329
REMARK  131  A    between atoms: _329  and  _330
REMARK  132  A    between atoms: _333  and  _335
REMARK  133  A    between atoms: _335  and  _336
REMARK  134  A    between atoms: _335  and  _338
REMARK  135  A    between atoms: _338  and  _339
REMARK  136  A    between atoms: _342  and  _344
REMARK  137  A    between atoms: _344  and  _345
REMARK  138  A    between atoms: _344  and  _347
REMARK  139  A    between atoms: _347  and  _348
REMARK  140  A    between atoms: _348  and  _349
REMARK  141  A    between atoms: _354  and  _356
REMARK  142  A    between atoms: _356  and  _357
REMARK  143  A    between atoms: _356  and  _359
REMARK  144  A    between atoms: _359  and  _360
REMARK  145  A    between atoms: _363  and  _365
REMARK  146  A    between atoms: _365  and  _366
REMARK  147  A    between atoms: _365  and  _368
REMARK  148  A    between atoms: _371  and  _373
REMARK  149  A    between atoms: _373  and  _374
REMARK  150  A    between atoms: _373  and  _376
REMARK  151  A    between atoms: _376  and  _377
REMARK  152  A    between atoms: _382  and  _383
REMARK  153  A    between atoms: _385  and  _387
REMARK  154  A    between atoms: _387  and  _388
REMARK  155  A    between atoms: _387  and  _390
REMARK  156  A    between atoms: _390  and  _391
REMARK  157  A    between atoms: _391  and  _392
REMARK  158  A    between atoms: _395  and  _397
REMARK  159  A    between atoms: _397  and  _398
REMARK  160  A    between atoms: _397  and  _400
REMARK  161  A    between atoms: _400  and  _401
REMARK  162  A    between atoms: _401  and  _402
REMARK  163  A    between atoms: _407  and  _409
REMARK  164  A    between atoms: _409  and  _410
REMARK  165  A    between atoms: _409  and  _412
REMARK  166  A    between atoms: _412  and  _413
REMARK  167  A    between atoms: _413  and  _414
REMARK  168  A    between atoms: _414  and  _415
REMARK  169  A    between atoms: _424  and  _426
REMARK  170  A    between atoms: _426  and  _427
REMARK  171  A    between atoms: _426  and  _429
REMARK  172  A    between atoms: _429  and  _430
REMARK  173  A    between atoms: _430  and  _431
REMARK  174  A    between atoms: _431  and  _432
REMARK  175  A    between atoms: _441  and  _443
REMARK  176  A    between atoms: _443  and  _444
REMARK  177  A    between atoms: _443  and  _446
REMARK  178  A    between atoms: _446  and  _447
REMARK  179  A    between atoms: _450  and  _451
REMARK  180  A    between atoms: _456  and  _458
REMARK  181  A    between atoms: _458  and  _459
REMARK  182  A    between atoms: _458  and  _461
REMARK  183  A    between atoms: _461  and  _462
REMARK  184  A    between atoms: _465  and  _467
REMARK  185  A    between atoms: _467  and  _468
REMARK  186  A    between atoms: _471  and  _473
REMARK  187  A    between atoms: _473  and  _474
REMARK  188  A    between atoms: _473  and  _476
REMARK  189  A    between atoms: _479  and  _481
REMARK  190  A    between atoms: _481  and  _482
REMARK  191  A    between atoms: _481  and  _484
REMARK  192  A    between atoms: _484  and  _485
REMARK  193  A    between atoms: _485  and  _486
REMARK  194  A    between atoms: _488  and  _490
REMARK  195  A    between atoms: _490  and  _491
REMARK  196  A    between atoms: _490  and  _493
REMARK  197  A    between atoms: _493  and  _494
REMARK  198  A    between atoms: _500  and  _502
REMARK  199  A    between atoms: _502  and  _503
REMARK  200  A    between atoms: _502  and  _505
REMARK  201  A    between atoms: _505  and  _506
REMARK  202  A    between atoms: _510  and  _511
REMARK  203  A    between atoms: _516  and  _518
REMARK  204  A    between atoms: _518  and  _519
REMARK  205  A    between atoms: _522  and  _524
REMARK  206  A    between atoms: _524  and  _525
REMARK  207  A    between atoms: _524  and  _527
REMARK  208  A    between atoms: _527  and  _528
REMARK  209  A    between atoms: _531  and  _533
REMARK  210  A    between atoms: _533  and  _534
REMARK  211  A    between atoms: _533  and  _536
REMARK  212  A    between atoms: _536  and  _537
REMARK  213  A    between atoms: _539  and  _541
REMARK  214  A    between atoms: _541  and  _542
REMARK  215  A    between atoms: _541  and  _544
REMARK  216  A    between atoms: _544  and  _545
REMARK  217  A    between atoms: _547  and  _549
REMARK  218  A    between atoms: _549  and  _550
REMARK  219  A    between atoms: _549  and  _552
REMARK  220  A    between atoms: _552  and  _553
REMARK  221  A    between atoms: _558  and  _559
REMARK  222  A    between atoms: _561  and  _563
REMARK  223  A    between atoms: _563  and  _564
REMARK  224  A    between atoms: _563  and  _566
REMARK  225  A    between atoms: _566  and  _567
REMARK  226  A    between atoms: _572  and  _573
REMARK  227  A    between atoms: _575  and  _577
REMARK  228  A    between atoms: _577  and  _578
REMARK                            x       y       z     vdW  Elec       q    Type
REMARK                         _______ _______ _______ _____ _____    ______ ____
ROOT
ATOM      1  O   HOH     1       7.343   6.453 -11.257  0.00  0.00    +0.000 OA
ENDROOT
TORSDOF 0
REMARK  Name = ../refined-set-2016/2byr/2byr_pocket.pdb
REMARK  228 active torsions:
REMARK  status: ('A' for Active; 'I' for Inactive)
REMARK    1  A    between atoms: _1  and  _3
REMARK    2  A    between atoms: _3  and  _4
REMARK    3  A    between atoms: _3  and  _6
REMARK    4  A    between atoms: _6  and  _7
REMARK    5  A    between atoms: _10  and  _12
REMARK    6  A    between atoms: _12  and  _13
REMARK    7  A    between atoms: _12  and  _15
REMARK    8  A    between atoms: _15  and  _16
REMARK    9  A    between atoms: _19  and  _21
REMARK   10  A    between atoms: _21  and  _22
REMARK   11  A    between atoms: _25  and  _27
REMARK   12  A    between atoms: _27  and  _28
REMARK   13  A    between atoms: _27  and  _30
REMARK   14  A    between atoms: _30  and  _31
REMARK   15  A    between atoms: _36  and  _37
REMARK   16  A    between atoms: _39  and  _41
REMARK   17  A    between atoms: _41  and  _42
REMARK   18  A    between atoms: _41  and  _44
REMARK   19  A    between atoms: _44  and  _45
REMARK   20  A    between atoms: _47  and  _49
REMARK   21  A    between atoms: _49  and  _50
REMARK   22  A    between atoms: _49  and  _52
REMARK   23  A    between atoms: _52  and  _53
REMARK   24  A    between atoms: _55  and  _57
REMARK   25  A    between atoms: _57  and  _58
REMARK   26  A    between atoms: _57  and  _60
REMARK   27  A    between atoms: _60  and  _61
REMARK   28  A    between atoms: _61  and  _62
REMARK   29  A    between atoms: _64  and  _66
REMARK   30  A    between atoms: _66  and  _67
REMARK   31  A    between atoms: _70  and  _72
REMARK   32  A    between atoms: _72  and  _73
REMARK   33  A    between atoms: _72  and  _75
REMARK   34  A    between atoms: _78  and  _80
REMARK   35  A    between atoms: _80  and  _81
REMARK   36  A    between atoms: _80  and  _83
REMARK   37  A    between atoms: _83  and  _84
REMARK   38  A    between atoms: _84  and  _85
REMARK   39  A    between atoms: _85  and  _86
REMARK   40  A    between atoms: _86  and  _87
REMARK   41  A    between atoms: _91  and  _93
REMARK   42  A    between atoms: _93  and  _94
REMARK   43  A    between atoms: _93  and  _96
REMARK   44  A    between atoms: _96  and  _97
REMARK   45  A    between atoms: _103  and  _105
REMARK   46  A    between atoms: _105  and  _106
REMARK   47  A    between atoms: _108  and  _110
REMARK   48  A    between atoms: _110  and  _111
REMARK   49  A    between atoms: _110  and  _113
REMARK   50  A    between atoms: _113  and  _114
REMARK   51  A    between atoms: _116  and  _118
REMARK   52  A    between atoms: _118  and  _119
REMARK   53  A    between atoms: _118  and  _121
REMARK   54  A    between atoms: _121  and  _122
REMARK   55  A    between atoms: _132  and  _134
REMARK   56  A    between atoms: _134  and  _135
REMARK   57  A    between atoms: _134  and  _137
REMARK   58  A    between atoms: _140  and  _142
REMARK   59  A    between atoms: _142  and  _143
REMARK   60  A    between atoms: _142  and  _145
REMARK   61  A    between atoms: _145  and  _146
REMARK   62  A    between atoms: _151  and  _152
REMARK   63  A    between atoms: _154  and  _156
REMARK   64  A    between atoms: _156  and  _157
REMARK   65  A    between atoms: _156  and  _159
REMARK   66  A    between atoms: _159  and  _160
REMARK   67  A    between atoms: _162  and  _164
REMARK   68  A    between atoms: _164  and  _165
REMARK   69  A    between atoms: _167  and  _169
REMARK   70  A    between atoms: _169  and  _170
REMARK   71  A    between atoms: _169  and  _172
REMARK   72  A    between atoms: _172  and  _173
REMARK   73  A    between atoms: _173  and  _174
REMARK   74  A    between atoms: _177  and  _179
REMARK   75  A    between atoms: _179  and  _180
REMARK   76  A    between atoms: _179  and  _182
REMARK   77  A    between atoms: _182  and  _183
REMARK   78  A    between atoms: _183  and  _184
REMARK   79  A    between atoms: _189  and  _191
REMARK   80  A    between atoms: _191  and  _192
REMARK   81  A    between atoms: _191  and  _194
REMARK   82  A    between atoms: _197  and  _199
REMARK   83  A    between atoms: _199  and  _200
REMARK   84  A    between atoms: _199  and  _202
REMARK   85  A    between atoms: _202  and  _203
REMARK   86  A    between atoms: _203  and  _204
REMARK   87  A    between atoms: _209  and  _211
REMARK   88  A    between atoms: _211  and  _212
REMARK   89  A    between atoms: _211  and  _214
REMARK   90  A    between atoms: _214  and  _215
REMARK   91  A    between atoms: _220  and  _222
REMARK   92  A    between atoms: _222  and  _223
REMARK   93  A    between atoms: _222  and  _225
REMARK   94  A    between atoms: _225  and  _226
REMARK   95  A    between atoms: _231  and  _232
REMARK   96  A    between atoms: _234  and  _236
REMARK   97  A    between atoms: _236  and  _237
REMARK   98  A    between atoms: _236  and  _239
REMARK   99  A    between atoms: _239  and  _240
REMARK  100  A    between atoms: _242  and  _244
REMARK  101  A    between atoms: _251  and  _252
REMARK  102  A    between atoms: _256  and  _258
REMARK  103  A    between atoms: _258  and  _259
REMARK  104  A    between atoms: _258  and  _261
REMARK  105  A    between atoms: _261  and  _262
REMARK  106  A    between atoms: _262  and  _263
REMARK  107  A    between atoms: _267  and  _268
REMARK  108  A    between atoms: _273  and  _275
REMARK  109  A    between atoms: _275  and  _276
REMARK  110  A    between atoms: _275  and  _278
REMARK  111  A    between atoms: _278  and  _279
REMARK  112  A    between atoms: _284  and  _285
REMARK  113  A    between atoms: _287  and  _289
REMARK  114  A    between atoms: _289  and  _290
REMARK  115  A    between atoms: _289  and  _292
REMARK  116  A    between atoms: _292  and  _293
REMARK  117  A    between atoms: _296  and  _298
REMARK  118  A    between atoms: _298  and  _299
REMARK  119  A    between atoms: _298  and  _301
REMARK  120  A    between atoms: _301  and  _302
REMARK  121  A    between atoms: _305  and  _307
REMARK  122  A    between atoms: _307  and  _308
REMARK  123  A    between atoms: _307  and  _310
REMARK  124  A    between atoms: _313  and  _315
REMARK  125  A    between atoms: _315  and  _316
REMARK  126  A    between atoms: _315  and  _318
REMARK  127  A    between atoms: _318  and  _319
REMARK  128  A    between atoms: _324  and  _326
REMARK  129  A    between atoms: _326  and  _327
REMARK  130  A    between atoms: _326  and  _329
REMARK  131  A    between atoms: _329  and  _330
REMARK  132  A    between atoms: _333  and  _335
REMARK  133  A    between atoms: _335  and  _336
REMARK  134  A    between atoms: _335  and  _338
REMARK  135  A    between atoms: _338  and  _339
REMARK  136  A    between atoms: _342  and  _344
REMARK  137  A    between atoms: _344  and  _345
REMARK  138  A    between atoms: _344  and  _347
REMARK  139  A    between atoms: _347  and  _348
REMARK  140  A    between atoms: _348  and  _349
REMARK  141  A    between atoms: _354  and  _356
REMARK  142  A    between atoms: _356  and  _357
REMARK  143  A    between atoms: _356  and  _359
REMARK  144  A    between atoms: _359  and  _360
REMARK  145  A    between atoms: _363  and  _365
REMARK  146  A    between atoms: _365  and  _366
REMARK  147  A    between atoms: _365  and  _368
REMARK  148  A    between atoms: _371  and  _373
REMARK  149  A    between atoms: _373  and  _374
REMARK  150  A    between atoms: _373  and  _376
REMARK  151  A    between atoms: _376  and  _377
REMARK  152  A    between atoms: _382  and  _383
REMARK  153  A    between atoms: _385  and  _387
REMARK  154  A    between atoms: _387  and  _388
REMARK  155  A    between atoms: _387  and  _390
REMARK  156  A    between atoms: _390  and  _391
REMARK  157  A    between atoms: _391  and  _392
REMARK  158  A    between atoms: _395  and  _397
REMARK  159  A    between atoms: _397  and  _398
REMARK  160  A    between atoms: _397  and  _400
REMARK  161  A    between atoms: _400  and  _401
REMARK  162  A    between atoms: _401  and  _402
REMARK  163  A    between atoms: _407  and  _409
REMARK  164  A    between atoms: _409  and  _410
REMARK  165  A    between atoms: _409  and  _412
REMARK  166  A    between atoms: _412  and  _413
REMARK  167  A    between atoms: _413  and  _414
REMARK  168  A    between atoms: _414  and  _415
REMARK  169  A    between atoms: _424  and  _426
REMARK  170  A    between atoms: _426  and  _427
REMARK  171  A    between atoms: _426  and  _429
REMARK  172  A    between atoms: _429  and  _430
REMARK  173  A    between atoms: _430  and  _431
REMARK  174  A    between atoms: _431  and  _432
REMARK  175  A    between atoms: _441  and  _443
REMARK  176  A    between atoms: _443  and  _444
REMARK  177  A    between atoms: _443  and  _446
REMARK  178  A    between atoms: _446  and  _447
REMARK  179  A    between atoms: _450  and  _451
REMARK  180  A    between atoms: _456  and  _458
REMARK  181  A    between atoms: _458  and  _459
REMARK  182  A    between atoms: _458  and  _461
REMARK  183  A    between atoms: _461  and  _462
REMARK  184  A    between atoms: _465  and  _467
REMARK  185  A    between atoms: _467  and  _468
REMARK  186  A    between atoms: _471  and  _473
REMARK  187  A    between atoms: _473  and  _474
REMARK  188  A    between atoms: _473  and  _476
REMARK  189  A    between atoms: _479  and  _481
REMARK  190  A    between atoms: _481  and  _482
REMARK  191  A    between atoms: _481  and  _484
REMARK  192  A    between atoms: _484  and  _485
REMARK  193  A    between atoms: _485  and  _486
REMARK  194  A    between atoms: _488  and  _490
REMARK  195  A    between atoms: _490  and  _491
REMARK  196  A    between atoms: _490  and  _493
REMARK  197  A    between atoms: _493  and  _494
REMARK  198  A    between atoms: _500  and  _502
REMARK  199  A    between atoms: _502  and  _503
REMARK  200  A    between atoms: _502  and  _505
REMARK  201  A    between atoms: _505  and  _506
REMARK  202  A    between atoms: _510  and  _511
REMARK  203  A    between atoms: _516  and  _518
REMARK  204  A    between atoms: _518  and  _519
REMARK  205  A    between atoms: _522  and  _524
REMARK  206  A    between atoms: _524  and  _525
REMARK  207  A    between atoms: _524  and  _527
REMARK  208  A    between atoms: _527  and  _528
REMARK  209  A    between atoms: _531  and  _533
REMARK  210  A    between atoms: _533  and  _534
REMARK  211  A    between atoms: _533  and  _536
REMARK  212  A    between atoms: _536  and  _537
REMARK  213  A    between atoms: _539  and  _541
REMARK  214  A    between atoms: _541  and  _542
REMARK  215  A    between atoms: _541  and  _544
REMARK  216  A    between atoms: _544  and  _545
REMARK  217  A    between atoms: _547  and  _549
REMARK  218  A    between atoms: _549  and  _550
REMARK  219  A    between atoms: _549  and  _552
REMARK  220  A    between atoms: _552  and  _553
REMARK  221  A    between atoms: _558  and  _559
REMARK  222  A    between atoms: _561  and  _563
REMARK  223  A    between atoms: _563  and  _564
REMARK  224  A    between atoms: _563  and  _566
REMARK  225  A    between atoms: _566  and  _567
REMARK  226  A    between atoms: _572  and  _573
REMARK  227  A    between atoms: _575  and  _577
REMARK  228  A    between atoms: _577  and  _578
REMARK                            x       y       z     vdW  Elec       q    Type
REMARK                         _______ _______ _______ _____ _____    ______ ____
ROOT
ATOM      1  O   HOH     1       8.234   2.156  -1.980  0.00  0.00    +0.000 OA
ENDROOT
TORSDOF 0
REMARK  Name = ../refined-set-2016/2byr/2byr_pocket.pdb
REMARK  228 active torsions:
REMARK  status: ('A' for Active; 'I' for Inactive)
REMARK    1  A    between atoms: _1  and  _3
REMARK    2  A    between atoms: _3  and  _4
REMARK    3  A    between atoms: _3  and  _6
REMARK    4  A    between atoms: _6  and  _7
REMARK    5  A    between atoms: _10  and  _12
REMARK    6  A    between atoms: _12  and  _13
REMARK    7  A    between atoms: _12  and  _15
REMARK    8  A    between atoms: _15  and  _16
REMARK    9  A    between atoms: _19  and  _21
REMARK   10  A    between atoms: _21  and  _22
REMARK   11  A    between atoms: _25  and  _27
REMARK   12  A    between atoms: _27  and  _28
REMARK   13  A    between atoms: _27  and  _30
REMARK   14  A    between atoms: _30  and  _31
REMARK   15  A    between atoms: _36  and  _37
REMARK   16  A    between atoms: _39  and  _41
REMARK   17  A    between atoms: _41  and  _42
REMARK   18  A    between atoms: _41  and  _44
REMARK   19  A    between atoms: _44  and  _45
REMARK   20  A    between atoms: _47  and  _49
REMARK   21  A    between atoms: _49  and  _50
REMARK   22  A    between atoms: _49  and  _52
REMARK   23  A    between atoms: _52  and  _53
REMARK   24  A    between atoms: _55  and  _57
REMARK   25  A    between atoms: _57  and  _58
REMARK   26  A    between atoms: _57  and  _60
REMARK   27  A    between atoms: _60  and  _61
REMARK   28  A    between atoms: _61  and  _62
REMARK   29  A    between atoms: _64  and  _66
REMARK   30  A    between atoms: _66  and  _67
REMARK   31  A    between atoms: _70  and  _72
REMARK   32  A    between atoms: _72  and  _73
REMARK   33  A    between atoms: _72  and  _75
REMARK   34  A    between atoms: _78  and  _80
REMARK   35  A    between atoms: _80  and  _81
REMARK   36  A    between atoms: _80  and  _83
REMARK   37  A    between atoms: _83  and  _84
REMARK   38  A    between atoms: _84  and  _85
REMARK   39  A    between atoms: _85  and  _86
REMARK   40  A    between atoms: _86  and  _87
REMARK   41  A    between atoms: _91  and  _93
REMARK   42  A    between atoms: _93  and  _94
REMARK   43  A    between atoms: _93  and  _96
REMARK   44  A    between atoms: _96  and  _97
REMARK   45  A    between atoms: _103  and  _105
REMARK   46  A    between atoms: _105  and  _106
REMARK   47  A    between atoms: _108  and  _110
REMARK   48  A    between atoms: _110  and  _111
REMARK   49  A    between atoms: _110  and  _113
REMARK   50  A    between atoms: _113  and  _114
REMARK   51  A    between atoms: _116  and  _118
REMARK   52  A    between atoms: _118  and  _119
REMARK   53  A    between atoms: _118  and  _121
REMARK   54  A    between atoms: _121  and  _122
REMARK   55  A    between atoms: _132  and  _134
REMARK   56  A    between atoms: _134  and  _135
REMARK   57  A    between atoms: _134  and  _137
REMARK   58  A    between atoms: _140  and  _142
REMARK   59  A    between atoms: _142  and  _143
REMARK   60  A    between atoms: _142  and  _145
REMARK   61  A    between atoms: _145  and  _146
REMARK   62  A    between atoms: _151  and  _152
REMARK   63  A    between atoms: _154  and  _156
REMARK   64  A    between atoms: _156  and  _157
REMARK   65  A    between atoms: _156  and  _159
REMARK   66  A    between atoms: _159  and  _160
REMARK   67  A    between atoms: _162  and  _164
REMARK   68  A    between atoms: _164  and  _165
REMARK   69  A    between atoms: _167  and  _169
REMARK   70  A    between atoms: _169  and  _170
REMARK   71  A    between atoms: _169  and  _172
REMARK   72  A    between atoms: _172  and  _173
REMARK   73  A    between atoms: _173  and  _174
REMARK   74  A    between atoms: _177  and  _179
REMARK   75  A    between atoms: _179  and  _180
REMARK   76  A    between atoms: _179  and  _182
REMARK   77  A    between atoms: _182  and  _183
REMARK   78  A    between atoms: _183  and  _184
REMARK   79  A    between atoms: _189  and  _191
REMARK   80  A    between atoms: _191  and  _192
REMARK   81  A    between atoms: _191  and  _194
REMARK   82  A    between atoms: _197  and  _199
REMARK   83  A    between atoms: _199  and  _200
REMARK   84  A    between atoms: _199  and  _202
REMARK   85  A    between atoms: _202  and  _203
REMARK   86  A    between atoms: _203  and  _204
REMARK   87  A    between atoms: _209  and  _211
REMARK   88  A    between atoms: _211  and  _212
REMARK   89  A    between atoms: _211  and  _214
REMARK   90  A    between atoms: _214  and  _215
REMARK   91  A    between atoms: _220  and  _222
REMARK   92  A    between atoms: _222  and  _223
REMARK   93  A    between atoms: _222  and  _225
REMARK   94  A    between atoms: _225  and  _226
REMARK   95  A    between atoms: _231  and  _232
REMARK   96  A    between atoms: _234  and  _236
REMARK   97  A    between atoms: _236  and  _237
REMARK   98  A    between atoms: _236  and  _239
REMARK   99  A    between atoms: _239  and  _240
REMARK  100  A    between atoms: _242  and  _244
REMARK  101  A    between atoms: _251  and  _252
REMARK  102  A    between atoms: _256  and  _258
REMARK  103  A    between atoms: _258  and  _259
REMARK  104  A    between atoms: _258  and  _261
REMARK  105  A    between atoms: _261  and  _262
REMARK  106  A    between atoms: _262  and  _263
REMARK  107  A    between atoms: _267  and  _268
REMARK  108  A    between atoms: _273  and  _275
REMARK  109  A    between atoms: _275  and  _276
REMARK  110  A    between atoms: _275  and  _278
REMARK  111  A    between atoms: _278  and  _279
REMARK  112  A    between atoms: _284  and  _285
REMARK  113  A    between atoms: _287  and  _289
REMARK  114  A    between atoms: _289  and  _290
REMARK  115  A    between atoms: _289  and  _292
REMARK  116  A    between atoms: _292  and  _293
REMARK  117  A    between atoms: _296  and  _298
REMARK  118  A    between atoms: _298  and  _299
REMARK  119  A    between atoms: _298  and  _301
REMARK  120  A    between atoms: _301  and  _302
REMARK  121  A    between atoms: _305  and  _307
REMARK  122  A    between atoms: _307  and  _308
REMARK  123  A    between atoms: _307  and  _310
REMARK  124  A    between atoms: _313  and  _315
REMARK  125  A    between atoms: _315  and  _316
REMARK  126  A    between atoms: _315  and  _318
REMARK  127  A    between atoms: _318  and  _319
REMARK  128  A    between atoms: _324  and  _326
REMARK  129  A    between atoms: _326  and  _327
REMARK  130  A    between atoms: _326  and  _329
REMARK  131  A    between atoms: _329  and  _330
REMARK  132  A    between atoms: _333  and  _335
REMARK  133  A    between atoms: _335  and  _336
REMARK  134  A    between atoms: _335  and  _338
REMARK  135  A    between atoms: _338  and  _339
REMARK  136  A    between atoms: _342  and  _344
REMARK  137  A    between atoms: _344  and  _345
REMARK  138  A    between atoms: _344  and  _347
REMARK  139  A    between atoms: _347  and  _348
REMARK  140  A    between atoms: _348  and  _349
REMARK  141  A    between atoms: _354  and  _356
REMARK  142  A    between atoms: _356  and  _357
REMARK  143  A    between atoms: _356  and  _359
REMARK  144  A    between atoms: _359  and  _360
REMARK  145  A    between atoms: _363  and  _365
REMARK  146  A    between atoms: _365  and  _366
REMARK  147  A    between atoms: _365  and  _368
REMARK  148  A    between atoms: _371  and  _373
REMARK  149  A    between atoms: _373  and  _374
REMARK  150  A    between atoms: _373  and  _376
REMARK  151  A    between atoms: _376  and  _377
REMARK  152  A    between atoms: _382  and  _383
REMARK  153  A    between atoms: _385  and  _387
REMARK  154  A    between atoms: _387  and  _388
REMARK  155  A    between atoms: _387  and  _390
REMARK  156  A    between atoms: _390  and  _391
REMARK  157  A    between atoms: _391  and  _392
REMARK  158  A    between atoms: _395  and  _397
REMARK  159  A    between atoms: _397  and  _398
REMARK  160  A    between atoms: _397  and  _400
REMARK  161  A    between atoms: _400  and  _401
REMARK  162  A    between atoms: _401  and  _402
REMARK  163  A    between atoms: _407  and  _409
REMARK  164  A    between atoms: _409  and  _410
REMARK  165  A    between atoms: _409  and  _412
REMARK  166  A    between atoms: _412  and  _413
REMARK  167  A    between atoms: _413  and  _414
REMARK  168  A    between atoms: _414  and  _415
REMARK  169  A    between atoms: _424  and  _426
REMARK  170  A    between atoms: _426  and  _427
REMARK  171  A    between atoms: _426  and  _429
REMARK  172  A    between atoms: _429  and  _430
REMARK  173  A    between atoms: _430  and  _431
REMARK  174  A    between atoms: _431  and  _432
REMARK  175  A    between atoms: _441  and  _443
REMARK  176  A    between atoms: _443  and  _444
REMARK  177  A    between atoms: _443  and  _446
REMARK  178  A    between atoms: _446  and  _447
REMARK  179  A    between atoms: _450  and  _451
REMARK  180  A    between atoms: _456  and  _458
REMARK  181  A    between atoms: _458  and  _459
REMARK  182  A    between atoms: _458  and  _461
REMARK  183  A    between atoms: _461  and  _462
REMARK  184  A    between atoms: _465  and  _467
REMARK  185  A    between atoms: _467  and  _468
REMARK  186  A    between atoms: _471  and  _473
REMARK  187  A    between atoms: _473  and  _474
REMARK  188  A    between atoms: _473  and  _476
REMARK  189  A    between atoms: _479  and  _481
REMARK  190  A    between atoms: _481  and  _482
REMARK  191  A    between atoms: _481  and  _484
REMARK  192  A    between atoms: _484  and  _485
REMARK  193  A    between atoms: _485  and  _486
REMARK  194  A    between atoms: _488  and  _490
REMARK  195  A    between atoms: _490  and  _491
REMARK  196  A    between atoms: _490  and  _493
REMARK  197  A    between atoms: _493  and  _494
REMARK  198  A    between atoms: _500  and  _502
REMARK  199  A    between atoms: _502  and  _503
REMARK  200  A    between atoms: _502  and  _505
REMARK  201  A    between atoms: _505  and  _506
REMARK  202  A    between atoms: _510  and  _511
REMARK  203  A    between atoms: _516  and  _518
REMARK  204  A    between atoms: _518  and  _519
REMARK  205  A    between atoms: _522  and  _524
REMARK  206  A    between atoms: _524  and  _525
REMARK  207  A    between atoms: _524  and  _527
REMARK  208  A    between atoms: _527  and  _528
REMARK  209  A    between atoms: _531  and  _533
REMARK  210  A    between atoms: _533  and  _534
REMARK  211  A    between atoms: _533  and  _536
REMARK  212  A    between atoms: _536  and  _537
REMARK  213  A    between atoms: _539  and  _541
REMARK  214  A    between atoms: _541  and  _542
REMARK  215  A    between atoms: _541  and  _544
REMARK  216  A    between atoms: _544  and  _545
REMARK  217  A    between atoms: _547  and  _549
REMARK  218  A    between atoms: _549  and  _550
REMARK  219  A    between atoms: _549  and  _552
REMARK  220  A    between atoms: _552  and  _553
REMARK  221  A    between atoms: _558  and  _559
REMARK  222  A    between atoms: _561  and  _563
REMARK  223  A    between atoms: _563  and  _564
REMARK  224  A    between atoms: _563  and  _566
REMARK  225  A    between atoms: _566  and  _567
REMARK  226  A    between atoms: _572  and  _573
REMARK  227  A    between atoms: _575  and  _577
REMARK  228  A    between atoms: _577  and  _578
REMARK                            x       y       z     vdW  Elec       q    Type
REMARK                         _______ _______ _______ _____ _____    ______ ____
ROOT
ATOM      1  O   HOH     1      10.958   2.932  -4.654  0.00  0.00    +0.000 OA
ENDROOT
TORSDOF 0
REMARK  Name = ../refined-set-2016/2byr/2byr_pocket.pdb
REMARK  228 active torsions:
REMARK  status: ('A' for Active; 'I' for Inactive)
REMARK    1  A    between atoms: _1  and  _3
REMARK    2  A    between atoms: _3  and  _4
REMARK    3  A    between atoms: _3  and  _6
REMARK    4  A    between atoms: _6  and  _7
REMARK    5  A    between atoms: _10  and  _12
REMARK    6  A    between atoms: _12  and  _13
REMARK    7  A    between atoms: _12  and  _15
REMARK    8  A    between atoms: _15  and  _16
REMARK    9  A    between atoms: _19  and  _21
REMARK   10  A    between atoms: _21  and  _22
REMARK   11  A    between atoms: _25  and  _27
REMARK   12  A    between atoms: _27  and  _28
REMARK   13  A    between atoms: _27  and  _30
REMARK   14  A    between atoms: _30  and  _31
REMARK   15  A    between atoms: _36  and  _37
REMARK   16  A    between atoms: _39  and  _41
REMARK   17  A    between atoms: _41  and  _42
REMARK   18  A    between atoms: _41  and  _44
REMARK   19  A    between atoms: _44  and  _45
REMARK   20  A    between atoms: _47  and  _49
REMARK   21  A    between atoms: _49  and  _50
REMARK   22  A    between atoms: _49  and  _52
REMARK   23  A    between atoms: _52  and  _53
REMARK   24  A    between atoms: _55  and  _57
REMARK   25  A    between atoms: _57  and  _58
REMARK   26  A    between atoms: _57  and  _60
REMARK   27  A    between atoms: _60  and  _61
REMARK   28  A    between atoms: _61  and  _62
REMARK   29  A    between atoms: _64  and  _66
REMARK   30  A    between atoms: _66  and  _67
REMARK   31  A    between atoms: _70  and  _72
REMARK   32  A    between atoms: _72  and  _73
REMARK   33  A    between atoms: _72  and  _75
REMARK   34  A    between atoms: _78  and  _80
REMARK   35  A    between atoms: _80  and  _81
REMARK   36  A    between atoms: _80  and  _83
REMARK   37  A    between atoms: _83  and  _84
REMARK   38  A    between atoms: _84  and  _85
REMARK   39  A    between atoms: _85  and  _86
REMARK   40  A    between atoms: _86  and  _87
REMARK   41  A    between atoms: _91  and  _93
REMARK   42  A    between atoms: _93  and  _94
REMARK   43  A    between atoms: _93  and  _96
REMARK   44  A    between atoms: _96  and  _97
REMARK   45  A    between atoms: _103  and  _105
REMARK   46  A    between atoms: _105  and  _106
REMARK   47  A    between atoms: _108  and  _110
REMARK   48  A    between atoms: _110  and  _111
REMARK   49  A    between atoms: _110  and  _113
REMARK   50  A    between atoms: _113  and  _114
REMARK   51  A    between atoms: _116  and  _118
REMARK   52  A    between atoms: _118  and  _119
REMARK   53  A    between atoms: _118  and  _121
REMARK   54  A    between atoms: _121  and  _122
REMARK   55  A    between atoms: _132  and  _134
REMARK   56  A    between atoms: _134  and  _135
REMARK   57  A    between atoms: _134  and  _137
REMARK   58  A    between atoms: _140  and  _142
REMARK   59  A    between atoms: _142  and  _143
REMARK   60  A    between atoms: _142  and  _145
REMARK   61  A    between atoms: _145  and  _146
REMARK   62  A    between atoms: _151  and  _152
REMARK   63  A    between atoms: _154  and  _156
REMARK   64  A    between atoms: _156  and  _157
REMARK   65  A    between atoms: _156  and  _159
REMARK   66  A    between atoms: _159  and  _160
REMARK   67  A    between atoms: _162  and  _164
REMARK   68  A    between atoms: _164  and  _165
REMARK   69  A    between atoms: _167  and  _169
REMARK   70  A    between atoms: _169  and  _170
REMARK   71  A    between atoms: _169  and  _172
REMARK   72  A    between atoms: _172  and  _173
REMARK   73  A    between atoms: _173  and  _174
REMARK   74  A    between atoms: _177  and  _179
REMARK   75  A    between atoms: _179  and  _180
REMARK   76  A    between atoms: _179  and  _182
REMARK   77  A    between atoms: _182  and  _183
REMARK   78  A    between atoms: _183  and  _184
REMARK   79  A    between atoms: _189  and  _191
REMARK   80  A    between atoms: _191  and  _192
REMARK   81  A    between atoms: _191  and  _194
REMARK   82  A    between atoms: _197  and  _199
REMARK   83  A    between atoms: _199  and  _200
REMARK   84  A    between atoms: _199  and  _202
REMARK   85  A    between atoms: _202  and  _203
REMARK   86  A    between atoms: _203  and  _204
REMARK   87  A    between atoms: _209  and  _211
REMARK   88  A    between atoms: _211  and  _212
REMARK   89  A    between atoms: _211  and  _214
REMARK   90  A    between atoms: _214  and  _215
REMARK   91  A    between atoms: _220  and  _222
REMARK   92  A    between atoms: _222  and  _223
REMARK   93  A    between atoms: _222  and  _225
REMARK   94  A    between atoms: _225  and  _226
REMARK   95  A    between atoms: _231  and  _232
REMARK   96  A    between atoms: _234  and  _236
REMARK   97  A    between atoms: _236  and  _237
REMARK   98  A    between atoms: _236  and  _239
REMARK   99  A    between atoms: _239  and  _240
REMARK  100  A    between atoms: _242  and  _244
REMARK  101  A    between atoms: _251  and  _252
REMARK  102  A    between atoms: _256  and  _258
REMARK  103  A    between atoms: _258  and  _259
REMARK  104  A    between atoms: _258  and  _261
REMARK  105  A    between atoms: _261  and  _262
REMARK  106  A    between atoms: _262  and  _263
REMARK  107  A    between atoms: _267  and  _268
REMARK  108  A    between atoms: _273  and  _275
REMARK  109  A    between atoms: _275  and  _276
REMARK  110  A    between atoms: _275  and  _278
REMARK  111  A    between atoms: _278  and  _279
REMARK  112  A    between atoms: _284  and  _285
REMARK  113  A    between atoms: _287  and  _289
REMARK  114  A    between atoms: _289  and  _290
REMARK  115  A    between atoms: _289  and  _292
REMARK  116  A    between atoms: _292  and  _293
REMARK  117  A    between atoms: _296  and  _298
REMARK  118  A    between atoms: _298  and  _299
REMARK  119  A    between atoms: _298  and  _301
REMARK  120  A    between atoms: _301  and  _302
REMARK  121  A    between atoms: _305  and  _307
REMARK  122  A    between atoms: _307  and  _308
REMARK  123  A    between atoms: _307  and  _310
REMARK  124  A    between atoms: _313  and  _315
REMARK  125  A    between atoms: _315  and  _316
REMARK  126  A    between atoms: _315  and  _318
REMARK  127  A    between atoms: _318  and  _319
REMARK  128  A    between atoms: _324  and  _326
REMARK  129  A    between atoms: _326  and  _327
REMARK  130  A    between atoms: _326  and  _329
REMARK  131  A    between atoms: _329  and  _330
REMARK  132  A    between atoms: _333  and  _335
REMARK  133  A    between atoms: _335  and  _336
REMARK  134  A    between atoms: _335  and  _338
REMARK  135  A    between atoms: _338  and  _339
REMARK  136  A    between atoms: _342  and  _344
REMARK  137  A    between atoms: _344  and  _345
REMARK  138  A    between atoms: _344  and  _347
REMARK  139  A    between atoms: _347  and  _348
REMARK  140  A    between atoms: _348  and  _349
REMARK  141  A    between atoms: _354  and  _356
REMARK  142  A    between atoms: _356  and  _357
REMARK  143  A    between atoms: _356  and  _359
REMARK  144  A    between atoms: _359  and  _360
REMARK  145  A    between atoms: _363  and  _365
REMARK  146  A    between atoms: _365  and  _366
REMARK  147  A    between atoms: _365  and  _368
REMARK  148  A    between atoms: _371  and  _373
REMARK  149  A    between atoms: _373  and  _374
REMARK  150  A    between atoms: _373  and  _376
REMARK  151  A    between atoms: _376  and  _377
REMARK  152  A    between atoms: _382  and  _383
REMARK  153  A    between atoms: _385  and  _387
REMARK  154  A    between atoms: _387  and  _388
REMARK  155  A    between atoms: _387  and  _390
REMARK  156  A    between atoms: _390  and  _391
REMARK  157  A    between atoms: _391  and  _392
REMARK  158  A    between atoms: _395  and  _397
REMARK  159  A    between atoms: _397  and  _398
REMARK  160  A    between atoms: _397  and  _400
REMARK  161  A    between atoms: _400  and  _401
REMARK  162  A    between atoms: _401  and  _402
REMARK  163  A    between atoms: _407  and  _409
REMARK  164  A    between atoms: _409  and  _410
REMARK  165  A    between atoms: _409  and  _412
REMARK  166  A    between atoms: _412  and  _413
REMARK  167  A    between atoms: _413  and  _414
REMARK  168  A    between atoms: _414  and  _415
REMARK  169  A    between atoms: _424  and  _426
REMARK  170  A    between atoms: _426  and  _427
REMARK  171  A    between atoms: _426  and  _429
REMARK  172  A    between atoms: _429  and  _430
REMARK  173  A    between atoms: _430  and  _431
REMARK  174  A    between atoms: _431  and  _432
REMARK  175  A    between atoms: _441  and  _443
REMARK  176  A    between atoms: _443  and  _444
REMARK  177  A    between atoms: _443  and  _446
REMARK  178  A    between atoms: _446  and  _447
REMARK  179  A    between atoms: _450  and  _451
REMARK  180  A    between atoms: _456  and  _458
REMARK  181  A    between atoms: _458  and  _459
REMARK  182  A    between atoms: _458  and  _461
REMARK  183  A    between atoms: _461  and  _462
REMARK  184  A    between atoms: _465  and  _467
REMARK  185  A    between atoms: _467  and  _468
REMARK  186  A    between atoms: _471  and  _473
REMARK  187  A    between atoms: _473  and  _474
REMARK  188  A    between atoms: _473  and  _476
REMARK  189  A    between atoms: _479  and  _481
REMARK  190  A    between atoms: _481  and  _482
REMARK  191  A    between atoms: _481  and  _484
REMARK  192  A    between atoms: _484  and  _485
REMARK  193  A    between atoms: _485  and  _486
REMARK  194  A    between atoms: _488  and  _490
REMARK  195  A    between atoms: _490  and  _491
REMARK  196  A    between atoms: _490  and  _493
REMARK  197  A    between atoms: _493  and  _494
REMARK  198  A    between atoms: _500  and  _502
REMARK  199  A    between atoms: _502  and  _503
REMARK  200  A    between atoms: _502  and  _505
REMARK  201  A    between atoms: _505  and  _506
REMARK  202  A    between atoms: _510  and  _511
REMARK  203  A    between atoms: _516  and  _518
REMARK  204  A    between atoms: _518  and  _519
REMARK  205  A    between atoms: _522  and  _524
REMARK  206  A    between atoms: _524  and  _525
REMARK  207  A    between atoms: _524  and  _527
REMARK  208  A    between atoms: _527  and  _528
REMARK  209  A    between atoms: _531  and  _533
REMARK  210  A    between atoms: _533  and  _534
REMARK  211  A    between atoms: _533  and  _536
REMARK  212  A    between atoms: _536  and  _537
REMARK  213  A    between atoms: _539  and  _541
REMARK  214  A    between atoms: _541  and  _542
REMARK  215  A    between atoms: _541  and  _544
REMARK  216  A    between atoms: _544  and  _545
REMARK  217  A    between atoms: _547  and  _549
REMARK  218  A    between atoms: _549  and  _550
REMARK  219  A    between atoms: _549  and  _552
REMARK  220  A    between atoms: _552  and  _553
REMARK  221  A    between atoms: _558  and  _559
REMARK  222  A    between atoms: _561  and  _563
REMARK  223  A    between atoms: _563  and  _564
REMARK  224  A    between atoms: _563  and  _566
REMARK  225  A    between atoms: _566  and  _567
REMARK  226  A    between atoms: _572  and  _573
REMARK  227  A    between atoms: _575  and  _577
REMARK  228  A    between atoms: _577  and  _578
REMARK                            x       y       z     vdW  Elec       q    Type
REMARK                         _______ _______ _______ _____ _____    ______ ____
ROOT
ATOM      1  O   HOH     1      18.503   6.501  -8.379  0.00  0.00    +0.000 OA
ENDROOT
TORSDOF 0
REMARK  Name = ../refined-set-2016/2byr/2byr_pocket.pdb
REMARK  228 active torsions:
REMARK  status: ('A' for Active; 'I' for Inactive)
REMARK    1  A    between atoms: _1  and  _3
REMARK    2  A    between atoms: _3  and  _4
REMARK    3  A    between atoms: _3  and  _6
REMARK    4  A    between atoms: _6  and  _7
REMARK    5  A    between atoms: _10  and  _12
REMARK    6  A    between atoms: _12  and  _13
REMARK    7  A    between atoms: _12  and  _15
REMARK    8  A    between atoms: _15  and  _16
REMARK    9  A    between atoms: _19  and  _21
REMARK   10  A    between atoms: _21  and  _22
REMARK   11  A    between atoms: _25  and  _27
REMARK   12  A    between atoms: _27  and  _28
REMARK   13  A    between atoms: _27  and  _30
REMARK   14  A    between atoms: _30  and  _31
REMARK   15  A    between atoms: _36  and  _37
REMARK   16  A    between atoms: _39  and  _41
REMARK   17  A    between atoms: _41  and  _42
REMARK   18  A    between atoms: _41  and  _44
REMARK   19  A    between atoms: _44  and  _45
REMARK   20  A    between atoms: _47  and  _49
REMARK   21  A    between atoms: _49  and  _50
REMARK   22  A    between atoms: _49  and  _52
REMARK   23  A    between atoms: _52  and  _53
REMARK   24  A    between atoms: _55  and  _57
REMARK   25  A    between atoms: _57  and  _58
REMARK   26  A    between atoms: _57  and  _60
REMARK   27  A    between atoms: _60  and  _61
REMARK   28  A    between atoms: _61  and  _62
REMARK   29  A    between atoms: _64  and  _66
REMARK   30  A    between atoms: _66  and  _67
REMARK   31  A    between atoms: _70  and  _72
REMARK   32  A    between atoms: _72  and  _73
REMARK   33  A    between atoms: _72  and  _75
REMARK   34  A    between atoms: _78  and  _80
REMARK   35  A    between atoms: _80  and  _81
REMARK   36  A    between atoms: _80  and  _83
REMARK   37  A    between atoms: _83  and  _84
REMARK   38  A    between atoms: _84  and  _85
REMARK   39  A    between atoms: _85  and  _86
REMARK   40  A    between atoms: _86  and  _87
REMARK   41  A    between atoms: _91  and  _93
REMARK   42  A    between atoms: _93  and  _94
REMARK   43  A    between atoms: _93  and  _96
REMARK   44  A    between atoms: _96  and  _97
REMARK   45  A    between atoms: _103  and  _105
REMARK   46  A    between atoms: _105  and  _106
REMARK   47  A    between atoms: _108  and  _110
REMARK   48  A    between atoms: _110  and  _111
REMARK   49  A    between atoms: _110  and  _113
REMARK   50  A    between atoms: _113  and  _114
REMARK   51  A    between atoms: _116  and  _118
REMARK   52  A    between atoms: _118  and  _119
REMARK   53  A    between atoms: _118  and  _121
REMARK   54  A    between atoms: _121  and  _122
REMARK   55  A    between atoms: _132  and  _134
REMARK   56  A    between atoms: _134  and  _135
REMARK   57  A    between atoms: _134  and  _137
REMARK   58  A    between atoms: _140  and  _142
REMARK   59  A    between atoms: _142  and  _143
REMARK   60  A    between atoms: _142  and  _145
REMARK   61  A    between atoms: _145  and  _146
REMARK   62  A    between atoms: _151  and  _152
REMARK   63  A    between atoms: _154  and  _156
REMARK   64  A    between atoms: _156  and  _157
REMARK   65  A    between atoms: _156  and  _159
REMARK   66  A    between atoms: _159  and  _160
REMARK   67  A    between atoms: _162  and  _164
REMARK   68  A    between atoms: _164  and  _165
REMARK   69  A    between atoms: _167  and  _169
REMARK   70  A    between atoms: _169  and  _170
REMARK   71  A    between atoms: _169  and  _172
REMARK   72  A    between atoms: _172  and  _173
REMARK   73  A    between atoms: _173  and  _174
REMARK   74  A    between atoms: _177  and  _179
REMARK   75  A    between atoms: _179  and  _180
REMARK   76  A    between atoms: _179  and  _182
REMARK   77  A    between atoms: _182  and  _183
REMARK   78  A    between atoms: _183  and  _184
REMARK   79  A    between atoms: _189  and  _191
REMARK   80  A    between atoms: _191  and  _192
REMARK   81  A    between atoms: _191  and  _194
REMARK   82  A    between atoms: _197  and  _199
REMARK   83  A    between atoms: _199  and  _200
REMARK   84  A    between atoms: _199  and  _202
REMARK   85  A    between atoms: _202  and  _203
REMARK   86  A    between atoms: _203  and  _204
REMARK   87  A    between atoms: _209  and  _211
REMARK   88  A    between atoms: _211  and  _212
REMARK   89  A    between atoms: _211  and  _214
REMARK   90  A    between atoms: _214  and  _215
REMARK   91  A    between atoms: _220  and  _222
REMARK   92  A    between atoms: _222  and  _223
REMARK   93  A    between atoms: _222  and  _225
REMARK   94  A    between atoms: _225  and  _226
REMARK   95  A    between atoms: _231  and  _232
REMARK   96  A    between atoms: _234  and  _236
REMARK   97  A    between atoms: _236  and  _237
REMARK   98  A    between atoms: _236  and  _239
REMARK   99  A    between atoms: _239  and  _240
REMARK  100  A    between atoms: _242  and  _244
REMARK  101  A    between atoms: _251  and  _252
REMARK  102  A    between atoms: _256  and  _258
REMARK  103  A    between atoms: _258  and  _259
REMARK  104  A    between atoms: _258  and  _261
REMARK  105  A    between atoms: _261  and  _262
REMARK  106  A    between atoms: _262  and  _263
REMARK  107  A    between atoms: _267  and  _268
REMARK  108  A    between atoms: _273  and  _275
REMARK  109  A    between atoms: _275  and  _276
REMARK  110  A    between atoms: _275  and  _278
REMARK  111  A    between atoms: _278  and  _279
REMARK  112  A    between atoms: _284  and  _285
REMARK  113  A    between atoms: _287  and  _289
REMARK  114  A    between atoms: _289  and  _290
REMARK  115  A    between atoms: _289  and  _292
REMARK  116  A    between atoms: _292  and  _293
REMARK  117  A    between atoms: _296  and  _298
REMARK  118  A    between atoms: _298  and  _299
REMARK  119  A    between atoms: _298  and  _301
REMARK  120  A    between atoms: _301  and  _302
REMARK  121  A    between atoms: _305  and  _307
REMARK  122  A    between atoms: _307  and  _308
REMARK  123  A    between atoms: _307  and  _310
REMARK  124  A    between atoms: _313  and  _315
REMARK  125  A    between atoms: _315  and  _316
REMARK  126  A    between atoms: _315  and  _318
REMARK  127  A    between atoms: _318  and  _319
REMARK  128  A    between atoms: _324  and  _326
REMARK  129  A    between atoms: _326  and  _327
REMARK  130  A    between atoms: _326  and  _329
REMARK  131  A    between atoms: _329  and  _330
REMARK  132  A    between atoms: _333  and  _335
REMARK  133  A    between atoms: _335  and  _336
REMARK  134  A    between atoms: _335  and  _338
REMARK  135  A    between atoms: _338  and  _339
REMARK  136  A    between atoms: _342  and  _344
REMARK  137  A    between atoms: _344  and  _345
REMARK  138  A    between atoms: _344  and  _347
REMARK  139  A    between atoms: _347  and  _348
REMARK  140  A    between atoms: _348  and  _349
REMARK  141  A    between atoms: _354  and  _356
REMARK  142  A    between atoms: _356  and  _357
REMARK  143  A    between atoms: _356  and  _359
REMARK  144  A    between atoms: _359  and  _360
REMARK  145  A    between atoms: _363  and  _365
REMARK  146  A    between atoms: _365  and  _366
REMARK  147  A    between atoms: _365  and  _368
REMARK  148  A    between atoms: _371  and  _373
REMARK  149  A    between atoms: _373  and  _374
REMARK  150  A    between atoms: _373  and  _376
REMARK  151  A    between atoms: _376  and  _377
REMARK  152  A    between atoms: _382  and  _383
REMARK  153  A    between atoms: _385  and  _387
REMARK  154  A    between atoms: _387  and  _388
REMARK  155  A    between atoms: _387  and  _390
REMARK  156  A    between atoms: _390  and  _391
REMARK  157  A    between atoms: _391  and  _392
REMARK  158  A    between atoms: _395  and  _397
REMARK  159  A    between atoms: _397  and  _398
REMARK  160  A    between atoms: _397  and  _400
REMARK  161  A    between atoms: _400  and  _401
REMARK  162  A    between atoms: _401  and  _402
REMARK  163  A    between atoms: _407  and  _409
REMARK  164  A    between atoms: _409  and  _410
REMARK  165  A    between atoms: _409  and  _412
REMARK  166  A    between atoms: _412  and  _413
REMARK  167  A    between atoms: _413  and  _414
REMARK  168  A    between atoms: _414  and  _415
REMARK  169  A    between atoms: _424  and  _426
REMARK  170  A    between atoms: _426  and  _427
REMARK  171  A    between atoms: _426  and  _429
REMARK  172  A    between atoms: _429  and  _430
REMARK  173  A    between atoms: _430  and  _431
REMARK  174  A    between atoms: _431  and  _432
REMARK  175  A    between atoms: _441  and  _443
REMARK  176  A    between atoms: _443  and  _444
REMARK  177  A    between atoms: _443  and  _446
REMARK  178  A    between atoms: _446  and  _447
REMARK  179  A    between atoms: _450  and  _451
REMARK  180  A    between atoms: _456  and  _458
REMARK  181  A    between atoms: _458  and  _459
REMARK  182  A    between atoms: _458  and  _461
REMARK  183  A    between atoms: _461  and  _462
REMARK  184  A    between atoms: _465  and  _467
REMARK  185  A    between atoms: _467  and  _468
REMARK  186  A    between atoms: _471  and  _473
REMARK  187  A    between atoms: _473  and  _474
REMARK  188  A    between atoms: _473  and  _476
REMARK  189  A    between atoms: _479  and  _481
REMARK  190  A    between atoms: _481  and  _482
REMARK  191  A    between atoms: _481  and  _484
REMARK  192  A    between atoms: _484  and  _485
REMARK  193  A    between atoms: _485  and  _486
REMARK  194  A    between atoms: _488  and  _490
REMARK  195  A    between atoms: _490  and  _491
REMARK  196  A    between atoms: _490  and  _493
REMARK  197  A    between atoms: _493  and  _494
REMARK  198  A    between atoms: _500  and  _502
REMARK  199  A    between atoms: _502  and  _503
REMARK  200  A    between atoms: _502  and  _505
REMARK  201  A    between atoms: _505  and  _506
REMARK  202  A    between atoms: _510  and  _511
REMARK  203  A    between atoms: _516  and  _518
REMARK  204  A    between atoms: _518  and  _519
REMARK  205  A    between atoms: _522  and  _524
REMARK  206  A    between atoms: _524  and  _525
REMARK  207  A    between atoms: _524  and  _527
REMARK  208  A    between atoms: _527  and  _528
REMARK  209  A    between atoms: _531  and  _533
REMARK  210  A    between atoms: _533  and  _534
REMARK  211  A    between atoms: _533  and  _536
REMARK  212  A    between atoms: _536  and  _537
REMARK  213  A    between atoms: _539  and  _541
REMARK  214  A    between atoms: _541  and  _542
REMARK  215  A    between atoms: _541  and  _544
REMARK  216  A    between atoms: _544  and  _545
REMARK  217  A    between atoms: _547  and  _549
REMARK  218  A    between atoms: _549  and  _550
REMARK  219  A    between atoms: _549  and  _552
REMARK  220  A    between atoms: _552  and  _553
REMARK  221  A    between atoms: _558  and  _559
REMARK  222  A    between atoms: _561  and  _563
REMARK  223  A    between atoms: _563  and  _564
REMARK  224  A    between atoms: _563  and  _566
REMARK  225  A    between atoms: _566  and  _567
REMARK  226  A    between atoms: _572  and  _573
REMARK  227  A    between atoms: _575  and  _577
REMARK  228  A    between atoms: _577  and  _578
REMARK                            x       y       z     vdW  Elec       q    Type
REMARK                         _______ _______ _______ _____ _____    ______ ____
ROOT
ATOM      1  O   HOH     1      17.519   8.846  -9.677  0.00  0.00    +0.000 OA
ENDROOT
TORSDOF 0
REMARK  Name = ../refined-set-2016/2byr/2byr_pocket.pdb
REMARK  228 active torsions:
REMARK  status: ('A' for Active; 'I' for Inactive)
REMARK    1  A    between atoms: _1  and  _3
REMARK    2  A    between atoms: _3  and  _4
REMARK    3  A    between atoms: _3  and  _6
REMARK    4  A    between atoms: _6  and  _7
REMARK    5  A    between atoms: _10  and  _12
REMARK    6  A    between atoms: _12  and  _13
REMARK    7  A    between atoms: _12  and  _15
REMARK    8  A    between atoms: _15  and  _16
REMARK    9  A    between atoms: _19  and  _21
REMARK   10  A    between atoms: _21  and  _22
REMARK   11  A    between atoms: _25  and  _27
REMARK   12  A    between atoms: _27  and  _28
REMARK   13  A    between atoms: _27  and  _30
REMARK   14  A    between atoms: _30  and  _31
REMARK   15  A    between atoms: _36  and  _37
REMARK   16  A    between atoms: _39  and  _41
REMARK   17  A    between atoms: _41  and  _42
REMARK   18  A    between atoms: _41  and  _44
REMARK   19  A    between atoms: _44  and  _45
REMARK   20  A    between atoms: _47  and  _49
REMARK   21  A    between atoms: _49  and  _50
REMARK   22  A    between atoms: _49  and  _52
REMARK   23  A    between atoms: _52  and  _53
REMARK   24  A    between atoms: _55  and  _57
REMARK   25  A    between atoms: _57  and  _58
REMARK   26  A    between atoms: _57  and  _60
REMARK   27  A    between atoms: _60  and  _61
REMARK   28  A    between atoms: _61  and  _62
REMARK   29  A    between atoms: _64  and  _66
REMARK   30  A    between atoms: _66  and  _67
REMARK   31  A    between atoms: _70  and  _72
REMARK   32  A    between atoms: _72  and  _73
REMARK   33  A    between atoms: _72  and  _75
REMARK   34  A    between atoms: _78  and  _80
REMARK   35  A    between atoms: _80  and  _81
REMARK   36  A    between atoms: _80  and  _83
REMARK   37  A    between atoms: _83  and  _84
REMARK   38  A    between atoms: _84  and  _85
REMARK   39  A    between atoms: _85  and  _86
REMARK   40  A    between atoms: _86  and  _87
REMARK   41  A    between atoms: _91  and  _93
REMARK   42  A    between atoms: _93  and  _94
REMARK   43  A    between atoms: _93  and  _96
REMARK   44  A    between atoms: _96  and  _97
REMARK   45  A    between atoms: _103  and  _105
REMARK   46  A    between atoms: _105  and  _106
REMARK   47  A    between atoms: _108  and  _110
REMARK   48  A    between atoms: _110  and  _111
REMARK   49  A    between atoms: _110  and  _113
REMARK   50  A    between atoms: _113  and  _114
REMARK   51  A    between atoms: _116  and  _118
REMARK   52  A    between atoms: _118  and  _119
REMARK   53  A    between atoms: _118  and  _121
REMARK   54  A    between atoms: _121  and  _122
REMARK   55  A    between atoms: _132  and  _134
REMARK   56  A    between atoms: _134  and  _135
REMARK   57  A    between atoms: _134  and  _137
REMARK   58  A    between atoms: _140  and  _142
REMARK   59  A    between atoms: _142  and  _143
REMARK   60  A    between atoms: _142  and  _145
REMARK   61  A    between atoms: _145  and  _146
REMARK   62  A    between atoms: _151  and  _152
REMARK   63  A    between atoms: _154  and  _156
REMARK   64  A    between atoms: _156  and  _157
REMARK   65  A    between atoms: _156  and  _159
REMARK   66  A    between atoms: _159  and  _160
REMARK   67  A    between atoms: _162  and  _164
REMARK   68  A    between atoms: _164  and  _165
REMARK   69  A    between atoms: _167  and  _169
REMARK   70  A    between atoms: _169  and  _170
REMARK   71  A    between atoms: _169  and  _172
REMARK   72  A    between atoms: _172  and  _173
REMARK   73  A    between atoms: _173  and  _174
REMARK   74  A    between atoms: _177  and  _179
REMARK   75  A    between atoms: _179  and  _180
REMARK   76  A    between atoms: _179  and  _182
REMARK   77  A    between atoms: _182  and  _183
REMARK   78  A    between atoms: _183  and  _184
REMARK   79  A    between atoms: _189  and  _191
REMARK   80  A    between atoms: _191  and  _192
REMARK   81  A    between atoms: _191  and  _194
REMARK   82  A    between atoms: _197  and  _199
REMARK   83  A    between atoms: _199  and  _200
REMARK   84  A    between atoms: _199  and  _202
REMARK   85  A    between atoms: _202  and  _203
REMARK   86  A    between atoms: _203  and  _204
REMARK   87  A    between atoms: _209  and  _211
REMARK   88  A    between atoms: _211  and  _212
REMARK   89  A    between atoms: _211  and  _214
REMARK   90  A    between atoms: _214  and  _215
REMARK   91  A    between atoms: _220  and  _222
REMARK   92  A    between atoms: _222  and  _223
REMARK   93  A    between atoms: _222  and  _225
REMARK   94  A    between atoms: _225  and  _226
REMARK   95  A    between atoms: _231  and  _232
REMARK   96  A    between atoms: _234  and  _236
REMARK   97  A    between atoms: _236  and  _237
REMARK   98  A    between atoms: _236  and  _239
REMARK   99  A    between atoms: _239  and  _240
REMARK  100  A    between atoms: _242  and  _244
REMARK  101  A    between atoms: _251  and  _252
REMARK  102  A    between atoms: _256  and  _258
REMARK  103  A    between atoms: _258  and  _259
REMARK  104  A    between atoms: _258  and  _261
REMARK  105  A    between atoms: _261  and  _262
REMARK  106  A    between atoms: _262  and  _263
REMARK  107  A    between atoms: _267  and  _268
REMARK  108  A    between atoms: _273  and  _275
REMARK  109  A    between atoms: _275  and  _276
REMARK  110  A    between atoms: _275  and  _278
REMARK  111  A    between atoms: _278  and  _279
REMARK  112  A    between atoms: _284  and  _285
REMARK  113  A    between atoms: _287  and  _289
REMARK  114  A    between atoms: _289  and  _290
REMARK  115  A    between atoms: _289  and  _292
REMARK  116  A    between atoms: _292  and  _293
REMARK  117  A    between atoms: _296  and  _298
REMARK  118  A    between atoms: _298  and  _299
REMARK  119  A    between atoms: _298  and  _301
REMARK  120  A    between atoms: _301  and  _302
REMARK  121  A    between atoms: _305  and  _307
REMARK  122  A    between atoms: _307  and  _308
REMARK  123  A    between atoms: _307  and  _310
REMARK  124  A    between atoms: _313  and  _315
REMARK  125  A    between atoms: _315  and  _316
REMARK  126  A    between atoms: _315  and  _318
REMARK  127  A    between atoms: _318  and  _319
REMARK  128  A    between atoms: _324  and  _326
REMARK  129  A    between atoms: _326  and  _327
REMARK  130  A    between atoms: _326  and  _329
REMARK  131  A    between atoms: _329  and  _330
REMARK  132  A    between atoms: _333  and  _335
REMARK  133  A    between atoms: _335  and  _336
REMARK  134  A    between atoms: _335  and  _338
REMARK  135  A    between atoms: _338  and  _339
REMARK  136  A    between atoms: _342  and  _344
REMARK  137  A    between atoms: _344  and  _345
REMARK  138  A    between atoms: _344  and  _347
REMARK  139  A    between atoms: _347  and  _348
REMARK  140  A    between atoms: _348  and  _349
REMARK  141  A    between atoms: _354  and  _356
REMARK  142  A    between atoms: _356  and  _357
REMARK  143  A    between atoms: _356  and  _359
REMARK  144  A    between atoms: _359  and  _360
REMARK  145  A    between atoms: _363  and  _365
REMARK  146  A    between atoms: _365  and  _366
REMARK  147  A    between atoms: _365  and  _368
REMARK  148  A    between atoms: _371  and  _373
REMARK  149  A    between atoms: _373  and  _374
REMARK  150  A    between atoms: _373  and  _376
REMARK  151  A    between atoms: _376  and  _377
REMARK  152  A    between atoms: _382  and  _383
REMARK  153  A    between atoms: _385  and  _387
REMARK  154  A    between atoms: _387  and  _388
REMARK  155  A    between atoms: _387  and  _390
REMARK  156  A    between atoms: _390  and  _391
REMARK  157  A    between atoms: _391  and  _392
REMARK  158  A    between atoms: _395  and  _397
REMARK  159  A    between atoms: _397  and  _398
REMARK  160  A    between atoms: _397  and  _400
REMARK  161  A    between atoms: _400  and  _401
REMARK  162  A    between atoms: _401  and  _402
REMARK  163  A    between atoms: _407  and  _409
REMARK  164  A    between atoms: _409  and  _410
REMARK  165  A    between atoms: _409  and  _412
REMARK  166  A    between atoms: _412  and  _413
REMARK  167  A    between atoms: _413  and  _414
REMARK  168  A    between atoms: _414  and  _415
REMARK  169  A    between atoms: _424  and  _426
REMARK  170  A    between atoms: _426  and  _427
REMARK  171  A    between atoms: _426  and  _429
REMARK  172  A    between atoms: _429  and  _430
REMARK  173  A    between atoms: _430  and  _431
REMARK  174  A    between atoms: _431  and  _432
REMARK  175  A    between atoms: _441  and  _443
REMARK  176  A    between atoms: _443  and  _444
REMARK  177  A    between atoms: _443  and  _446
REMARK  178  A    between atoms: _446  and  _447
REMARK  179  A    between atoms: _450  and  _451
REMARK  180  A    between atoms: _456  and  _458
REMARK  181  A    between atoms: _458  and  _459
REMARK  182  A    between atoms: _458  and  _461
REMARK  183  A    between atoms: _461  and  _462
REMARK  184  A    between atoms: _465  and  _467
REMARK  185  A    between atoms: _467  and  _468
REMARK  186  A    between atoms: _471  and  _473
REMARK  187  A    between atoms: _473  and  _474
REMARK  188  A    between atoms: _473  and  _476
REMARK  189  A    between atoms: _479  and  _481
REMARK  190  A    between atoms: _481  and  _482
REMARK  191  A    between atoms: _481  and  _484
REMARK  192  A    between atoms: _484  and  _485
REMARK  193  A    between atoms: _485  and  _486
REMARK  194  A    between atoms: _488  and  _490
REMARK  195  A    between atoms: _490  and  _491
REMARK  196  A    between atoms: _490  and  _493
REMARK  197  A    between atoms: _493  and  _494
REMARK  198  A    between atoms: _500  and  _502
REMARK  199  A    between atoms: _502  and  _503
REMARK  200  A    between atoms: _502  and  _505
REMARK  201  A    between atoms: _505  and  _506
REMARK  202  A    between atoms: _510  and  _511
REMARK  203  A    between atoms: _516  and  _518
REMARK  204  A    between atoms: _518  and  _519
REMARK  205  A    between atoms: _522  and  _524
REMARK  206  A    between atoms: _524  and  _525
REMARK  207  A    between atoms: _524  and  _527
REMARK  208  A    between atoms: _527  and  _528
REMARK  209  A    between atoms: _531  and  _533
REMARK  210  A    between atoms: _533  and  _534
REMARK  211  A    between atoms: _533  and  _536
REMARK  212  A    between atoms: _536  and  _537
REMARK  213  A    between atoms: _539  and  _541
REMARK  214  A    between atoms: _541  and  _542
REMARK  215  A    between atoms: _541  and  _544
REMARK  216  A    between atoms: _544  and  _545
REMARK  217  A    between atoms: _547  and  _549
REMARK  218  A    between atoms: _549  and  _550
REMARK  219  A    between atoms: _549  and  _552
REMARK  220  A    between atoms: _552  and  _553
REMARK  221  A    between atoms: _558  and  _559
REMARK  222  A    between atoms: _561  and  _563
REMARK  223  A    between atoms: _563  and  _564
REMARK  224  A    between atoms: _563  and  _566
REMARK  225  A    between atoms: _566  and  _567
REMARK  226  A    between atoms: _572  and  _573
REMARK  227  A    between atoms: _575  and  _577
REMARK  228  A    between atoms: _577  and  _578
REMARK                            x       y       z     vdW  Elec       q    Type
REMARK                         _______ _______ _______ _____ _____    ______ ____
ROOT
ATOM      1  O   HOH     1      12.944   3.495  -6.532  0.00  0.00    +0.000 OA
ENDROOT
TORSDOF 0
REMARK  Name = ../refined-set-2016/2byr/2byr_pocket.pdb
REMARK  228 active torsions:
REMARK  status: ('A' for Active; 'I' for Inactive)
REMARK    1  A    between atoms: _1  and  _3
REMARK    2  A    between atoms: _3  and  _4
REMARK    3  A    between atoms: _3  and  _6
REMARK    4  A    between atoms: _6  and  _7
REMARK    5  A    between atoms: _10  and  _12
REMARK    6  A    between atoms: _12  and  _13
REMARK    7  A    between atoms: _12  and  _15
REMARK    8  A    between atoms: _15  and  _16
REMARK    9  A    between atoms: _19  and  _21
REMARK   10  A    between atoms: _21  and  _22
REMARK   11  A    between atoms: _25  and  _27
REMARK   12  A    between atoms: _27  and  _28
REMARK   13  A    between atoms: _27  and  _30
REMARK   14  A    between atoms: _30  and  _31
REMARK   15  A    between atoms: _36  and  _37
REMARK   16  A    between atoms: _39  and  _41
REMARK   17  A    between atoms: _41  and  _42
REMARK   18  A    between atoms: _41  and  _44
REMARK   19  A    between atoms: _44  and  _45
REMARK   20  A    between atoms: _47  and  _49
REMARK   21  A    between atoms: _49  and  _50
REMARK   22  A    between atoms: _49  and  _52
REMARK   23  A    between atoms: _52  and  _53
REMARK   24  A    between atoms: _55  and  _57
REMARK   25  A    between atoms: _57  and  _58
REMARK   26  A    between atoms: _57  and  _60
REMARK   27  A    between atoms: _60  and  _61
REMARK   28  A    between atoms: _61  and  _62
REMARK   29  A    between atoms: _64  and  _66
REMARK   30  A    between atoms: _66  and  _67
REMARK   31  A    between atoms: _70  and  _72
REMARK   32  A    between atoms: _72  and  _73
REMARK   33  A    between atoms: _72  and  _75
REMARK   34  A    between atoms: _78  and  _80
REMARK   35  A    between atoms: _80  and  _81
REMARK   36  A    between atoms: _80  and  _83
REMARK   37  A    between atoms: _83  and  _84
REMARK   38  A    between atoms: _84  and  _85
REMARK   39  A    between atoms: _85  and  _86
REMARK   40  A    between atoms: _86  and  _87
REMARK   41  A    between atoms: _91  and  _93
REMARK   42  A    between atoms: _93  and  _94
REMARK   43  A    between atoms: _93  and  _96
REMARK   44  A    between atoms: _96  and  _97
REMARK   45  A    between atoms: _103  and  _105
REMARK   46  A    between atoms: _105  and  _106
REMARK   47  A    between atoms: _108  and  _110
REMARK   48  A    between atoms: _110  and  _111
REMARK   49  A    between atoms: _110  and  _113
REMARK   50  A    between atoms: _113  and  _114
REMARK   51  A    between atoms: _116  and  _118
REMARK   52  A    between atoms: _118  and  _119
REMARK   53  A    between atoms: _118  and  _121
REMARK   54  A    between atoms: _121  and  _122
REMARK   55  A    between atoms: _132  and  _134
REMARK   56  A    between atoms: _134  and  _135
REMARK   57  A    between atoms: _134  and  _137
REMARK   58  A    between atoms: _140  and  _142
REMARK   59  A    between atoms: _142  and  _143
REMARK   60  A    between atoms: _142  and  _145
REMARK   61  A    between atoms: _145  and  _146
REMARK   62  A    between atoms: _151  and  _152
REMARK   63  A    between atoms: _154  and  _156
REMARK   64  A    between atoms: _156  and  _157
REMARK   65  A    between atoms: _156  and  _159
REMARK   66  A    between atoms: _159  and  _160
REMARK   67  A    between atoms: _162  and  _164
REMARK   68  A    between atoms: _164  and  _165
REMARK   69  A    between atoms: _167  and  _169
REMARK   70  A    between atoms: _169  and  _170
REMARK   71  A    between atoms: _169  and  _172
REMARK   72  A    between atoms: _172  and  _173
REMARK   73  A    between atoms: _173  and  _174
REMARK   74  A    between atoms: _177  and  _179
REMARK   75  A    between atoms: _179  and  _180
REMARK   76  A    between atoms: _179  and  _182
REMARK   77  A    between atoms: _182  and  _183
REMARK   78  A    between atoms: _183  and  _184
REMARK   79  A    between atoms: _189  and  _191
REMARK   80  A    between atoms: _191  and  _192
REMARK   81  A    between atoms: _191  and  _194
REMARK   82  A    between atoms: _197  and  _199
REMARK   83  A    between atoms: _199  and  _200
REMARK   84  A    between atoms: _199  and  _202
REMARK   85  A    between atoms: _202  and  _203
REMARK   86  A    between atoms: _203  and  _204
REMARK   87  A    between atoms: _209  and  _211
REMARK   88  A    between atoms: _211  and  _212
REMARK   89  A    between atoms: _211  and  _214
REMARK   90  A    between atoms: _214  and  _215
REMARK   91  A    between atoms: _220  and  _222
REMARK   92  A    between atoms: _222  and  _223
REMARK   93  A    between atoms: _222  and  _225
REMARK   94  A    between atoms: _225  and  _226
REMARK   95  A    between atoms: _231  and  _232
REMARK   96  A    between atoms: _234  and  _236
REMARK   97  A    between atoms: _236  and  _237
REMARK   98  A    between atoms: _236  and  _239
REMARK   99  A    between atoms: _239  and  _240
REMARK  100  A    between atoms: _242  and  _244
REMARK  101  A    between atoms: _251  and  _252
REMARK  102  A    between atoms: _256  and  _258
REMARK  103  A    between atoms: _258  and  _259
REMARK  104  A    between atoms: _258  and  _261
REMARK  105  A    between atoms: _261  and  _262
REMARK  106  A    between atoms: _262  and  _263
REMARK  107  A    between atoms: _267  and  _268
REMARK  108  A    between atoms: _273  and  _275
REMARK  109  A    between atoms: _275  and  _276
REMARK  110  A    between atoms: _275  and  _278
REMARK  111  A    between atoms: _278  and  _279
REMARK  112  A    between atoms: _284  and  _285
REMARK  113  A    between atoms: _287  and  _289
REMARK  114  A    between atoms: _289  and  _290
REMARK  115  A    between atoms: _289  and  _292
REMARK  116  A    between atoms: _292  and  _293
REMARK  117  A    between atoms: _296  and  _298
REMARK  118  A    between atoms: _298  and  _299
REMARK  119  A    between atoms: _298  and  _301
REMARK  120  A    between atoms: _301  and  _302
REMARK  121  A    between atoms: _305  and  _307
REMARK  122  A    between atoms: _307  and  _308
REMARK  123  A    between atoms: _307  and  _310
REMARK  124  A    between atoms: _313  and  _315
REMARK  125  A    between atoms: _315  and  _316
REMARK  126  A    between atoms: _315  and  _318
REMARK  127  A    between atoms: _318  and  _319
REMARK  128  A    between atoms: _324  and  _326
REMARK  129  A    between atoms: _326  and  _327
REMARK  130  A    between atoms: _326  and  _329
REMARK  131  A    between atoms: _329  and  _330
REMARK  132  A    between atoms: _333  and  _335
REMARK  133  A    between atoms: _335  and  _336
REMARK  134  A    between atoms: _335  and  _338
REMARK  135  A    between atoms: _338  and  _339
REMARK  136  A    between atoms: _342  and  _344
REMARK  137  A    between atoms: _344  and  _345
REMARK  138  A    between atoms: _344  and  _347
REMARK  139  A    between atoms: _347  and  _348
REMARK  140  A    between atoms: _348  and  _349
REMARK  141  A    between atoms: _354  and  _356
REMARK  142  A    between atoms: _356  and  _357
REMARK  143  A    between atoms: _356  and  _359
REMARK  144  A    between atoms: _359  and  _360
REMARK  145  A    between atoms: _363  and  _365
REMARK  146  A    between atoms: _365  and  _366
REMARK  147  A    between atoms: _365  and  _368
REMARK  148  A    between atoms: _371  and  _373
REMARK  149  A    between atoms: _373  and  _374
REMARK  150  A    between atoms: _373  and  _376
REMARK  151  A    between atoms: _376  and  _377
REMARK  152  A    between atoms: _382  and  _383
REMARK  153  A    between atoms: _385  and  _387
REMARK  154  A    between atoms: _387  and  _388
REMARK  155  A    between atoms: _387  and  _390
REMARK  156  A    between atoms: _390  and  _391
REMARK  157  A    between atoms: _391  and  _392
REMARK  158  A    between atoms: _395  and  _397
REMARK  159  A    between atoms: _397  and  _398
REMARK  160  A    between atoms: _397  and  _400
REMARK  161  A    between atoms: _400  and  _401
REMARK  162  A    between atoms: _401  and  _402
REMARK  163  A    between atoms: _407  and  _409
REMARK  164  A    between atoms: _409  and  _410
REMARK  165  A    between atoms: _409  and  _412
REMARK  166  A    between atoms: _412  and  _413
REMARK  167  A    between atoms: _413  and  _414
REMARK  168  A    between atoms: _414  and  _415
REMARK  169  A    between atoms: _424  and  _426
REMARK  170  A    between atoms: _426  and  _427
REMARK  171  A    between atoms: _426  and  _429
REMARK  172  A    between atoms: _429  and  _430
REMARK  173  A    between atoms: _430  and  _431
REMARK  174  A    between atoms: _431  and  _432
REMARK  175  A    between atoms: _441  and  _443
REMARK  176  A    between atoms: _443  and  _444
REMARK  177  A    between atoms: _443  and  _446
REMARK  178  A    between atoms: _446  and  _447
REMARK  179  A    between atoms: _450  and  _451
REMARK  180  A    between atoms: _456  and  _458
REMARK  181  A    between atoms: _458  and  _459
REMARK  182  A    between atoms: _458  and  _461
REMARK  183  A    between atoms: _461  and  _462
REMARK  184  A    between atoms: _465  and  _467
REMARK  185  A    between atoms: _467  and  _468
REMARK  186  A    between atoms: _471  and  _473
REMARK  187  A    between atoms: _473  and  _474
REMARK  188  A    between atoms: _473  and  _476
REMARK  189  A    between atoms: _479  and  _481
REMARK  190  A    between atoms: _481  and  _482
REMARK  191  A    between atoms: _481  and  _484
REMARK  192  A    between atoms: _484  and  _485
REMARK  193  A    between atoms: _485  and  _486
REMARK  194  A    between atoms: _488  and  _490
REMARK  195  A    between atoms: _490  and  _491
REMARK  196  A    between atoms: _490  and  _493
REMARK  197  A    between atoms: _493  and  _494
REMARK  198  A    between atoms: _500  and  _502
REMARK  199  A    between atoms: _502  and  _503
REMARK  200  A    between atoms: _502  and  _505
REMARK  201  A    between atoms: _505  and  _506
REMARK  202  A    between atoms: _510  and  _511
REMARK  203  A    between atoms: _516  and  _518
REMARK  204  A    between atoms: _518  and  _519
REMARK  205  A    between atoms: _522  and  _524
REMARK  206  A    between atoms: _524  and  _525
REMARK  207  A    between atoms: _524  and  _527
REMARK  208  A    between atoms: _527  and  _528
REMARK  209  A    between atoms: _531  and  _533
REMARK  210  A    between atoms: _533  and  _534
REMARK  211  A    between atoms: _533  and  _536
REMARK  212  A    between atoms: _536  and  _537
REMARK  213  A    between atoms: _539  and  _541
REMARK  214  A    between atoms: _541  and  _542
REMARK  215  A    between atoms: _541  and  _544
REMARK  216  A    between atoms: _544  and  _545
REMARK  217  A    between atoms: _547  and  _549
REMARK  218  A    between atoms: _549  and  _550
REMARK  219  A    between atoms: _549  and  _552
REMARK  220  A    between atoms: _552  and  _553
REMARK  221  A    between atoms: _558  and  _559
REMARK  222  A    between atoms: _561  and  _563
REMARK  223  A    between atoms: _563  and  _564
REMARK  224  A    between atoms: _563  and  _566
REMARK  225  A    between atoms: _566  and  _567
REMARK  226  A    between atoms: _572  and  _573
REMARK  227  A    between atoms: _575  and  _577
REMARK  228  A    between atoms: _577  and  _578
REMARK                            x       y       z     vdW  Elec       q    Type
REMARK                         _______ _______ _______ _____ _____    ______ ____
ROOT
ATOM      1  O   HOH     1       1.995   1.984 -13.612  0.00  0.00    +0.000 OA
ENDROOT
TORSDOF 0
REMARK  Name = ../refined-set-2016/2byr/2byr_pocket.pdb
REMARK  228 active torsions:
REMARK  status: ('A' for Active; 'I' for Inactive)
REMARK    1  A    between atoms: _1  and  _3
REMARK    2  A    between atoms: _3  and  _4
REMARK    3  A    between atoms: _3  and  _6
REMARK    4  A    between atoms: _6  and  _7
REMARK    5  A    between atoms: _10  and  _12
REMARK    6  A    between atoms: _12  and  _13
REMARK    7  A    between atoms: _12  and  _15
REMARK    8  A    between atoms: _15  and  _16
REMARK    9  A    between atoms: _19  and  _21
REMARK   10  A    between atoms: _21  and  _22
REMARK   11  A    between atoms: _25  and  _27
REMARK   12  A    between atoms: _27  and  _28
REMARK   13  A    between atoms: _27  and  _30
REMARK   14  A    between atoms: _30  and  _31
REMARK   15  A    between atoms: _36  and  _37
REMARK   16  A    between atoms: _39  and  _41
REMARK   17  A    between atoms: _41  and  _42
REMARK   18  A    between atoms: _41  and  _44
REMARK   19  A    between atoms: _44  and  _45
REMARK   20  A    between atoms: _47  and  _49
REMARK   21  A    between atoms: _49  and  _50
REMARK   22  A    between atoms: _49  and  _52
REMARK   23  A    between atoms: _52  and  _53
REMARK   24  A    between atoms: _55  and  _57
REMARK   25  A    between atoms: _57  and  _58
REMARK   26  A    between atoms: _57  and  _60
REMARK   27  A    between atoms: _60  and  _61
REMARK   28  A    between atoms: _61  and  _62
REMARK   29  A    between atoms: _64  and  _66
REMARK   30  A    between atoms: _66  and  _67
REMARK   31  A    between atoms: _70  and  _72
REMARK   32  A    between atoms: _72  and  _73
REMARK   33  A    between atoms: _72  and  _75
REMARK   34  A    between atoms: _78  and  _80
REMARK   35  A    between atoms: _80  and  _81
REMARK   36  A    between atoms: _80  and  _83
REMARK   37  A    between atoms: _83  and  _84
REMARK   38  A    between atoms: _84  and  _85
REMARK   39  A    between atoms: _85  and  _86
REMARK   40  A    between atoms: _86  and  _87
REMARK   41  A    between atoms: _91  and  _93
REMARK   42  A    between atoms: _93  and  _94
REMARK   43  A    between atoms: _93  and  _96
REMARK   44  A    between atoms: _96  and  _97
REMARK   45  A    between atoms: _103  and  _105
REMARK   46  A    between atoms: _105  and  _106
REMARK   47  A    between atoms: _108  and  _110
REMARK   48  A    between atoms: _110  and  _111
REMARK   49  A    between atoms: _110  and  _113
REMARK   50  A    between atoms: _113  and  _114
REMARK   51  A    between atoms: _116  and  _118
REMARK   52  A    between atoms: _118  and  _119
REMARK   53  A    between atoms: _118  and  _121
REMARK   54  A    between atoms: _121  and  _122
REMARK   55  A    between atoms: _132  and  _134
REMARK   56  A    between atoms: _134  and  _135
REMARK   57  A    between atoms: _134  and  _137
REMARK   58  A    between atoms: _140  and  _142
REMARK   59  A    between atoms: _142  and  _143
REMARK   60  A    between atoms: _142  and  _145
REMARK   61  A    between atoms: _145  and  _146
REMARK   62  A    between atoms: _151  and  _152
REMARK   63  A    between atoms: _154  and  _156
REMARK   64  A    between atoms: _156  and  _157
REMARK   65  A    between atoms: _156  and  _159
REMARK   66  A    between atoms: _159  and  _160
REMARK   67  A    between atoms: _162  and  _164
REMARK   68  A    between atoms: _164  and  _165
REMARK   69  A    between atoms: _167  and  _169
REMARK   70  A    between atoms: _169  and  _170
REMARK   71  A    between atoms: _169  and  _172
REMARK   72  A    between atoms: _172  and  _173
REMARK   73  A    between atoms: _173  and  _174
REMARK   74  A    between atoms: _177  and  _179
REMARK   75  A    between atoms: _179  and  _180
REMARK   76  A    between atoms: _179  and  _182
REMARK   77  A    between atoms: _182  and  _183
REMARK   78  A    between atoms: _183  and  _184
REMARK   79  A    between atoms: _189  and  _191
REMARK   80  A    between atoms: _191  and  _192
REMARK   81  A    between atoms: _191  and  _194
REMARK   82  A    between atoms: _197  and  _199
REMARK   83  A    between atoms: _199  and  _200
REMARK   84  A    between atoms: _199  and  _202
REMARK   85  A    between atoms: _202  and  _203
REMARK   86  A    between atoms: _203  and  _204
REMARK   87  A    between atoms: _209  and  _211
REMARK   88  A    between atoms: _211  and  _212
REMARK   89  A    between atoms: _211  and  _214
REMARK   90  A    between atoms: _214  and  _215
REMARK   91  A    between atoms: _220  and  _222
REMARK   92  A    between atoms: _222  and  _223
REMARK   93  A    between atoms: _222  and  _225
REMARK   94  A    between atoms: _225  and  _226
REMARK   95  A    between atoms: _231  and  _232
REMARK   96  A    between atoms: _234  and  _236
REMARK   97  A    between atoms: _236  and  _237
REMARK   98  A    between atoms: _236  and  _239
REMARK   99  A    between atoms: _239  and  _240
REMARK  100  A    between atoms: _242  and  _244
REMARK  101  A    between atoms: _251  and  _252
REMARK  102  A    between atoms: _256  and  _258
REMARK  103  A    between atoms: _258  and  _259
REMARK  104  A    between atoms: _258  and  _261
REMARK  105  A    between atoms: _261  and  _262
REMARK  106  A    between atoms: _262  and  _263
REMARK  107  A    between atoms: _267  and  _268
REMARK  108  A    between atoms: _273  and  _275
REMARK  109  A    between atoms: _275  and  _276
REMARK  110  A    between atoms: _275  and  _278
REMARK  111  A    between atoms: _278  and  _279
REMARK  112  A    between atoms: _284  and  _285
REMARK  113  A    between atoms: _287  and  _289
REMARK  114  A    between atoms: _289  and  _290
REMARK  115  A    between atoms: _289  and  _292
REMARK  116  A    between atoms: _292  and  _293
REMARK  117  A    between atoms: _296  and  _298
REMARK  118  A    between atoms: _298  and  _299
REMARK  119  A    between atoms: _298  and  _301
REMARK  120  A    between atoms: _301  and  _302
REMARK  121  A    between atoms: _305  and  _307
REMARK  122  A    between atoms: _307  and  _308
REMARK  123  A    between atoms: _307  and  _310
REMARK  124  A    between atoms: _313  and  _315
REMARK  125  A    between atoms: _315  and  _316
REMARK  126  A    between atoms: _315  and  _318
REMARK  127  A    between atoms: _318  and  _319
REMARK  128  A    between atoms: _324  and  _326
REMARK  129  A    between atoms: _326  and  _327
REMARK  130  A    between atoms: _326  and  _329
REMARK  131  A    between atoms: _329  and  _330
REMARK  132  A    between atoms: _333  and  _335
REMARK  133  A    between atoms: _335  and  _336
REMARK  134  A    between atoms: _335  and  _338
REMARK  135  A    between atoms: _338  and  _339
REMARK  136  A    between atoms: _342  and  _344
REMARK  137  A    between atoms: _344  and  _345
REMARK  138  A    between atoms: _344  and  _347
REMARK  139  A    between atoms: _347  and  _348
REMARK  140  A    between atoms: _348  and  _349
REMARK  141  A    between atoms: _354  and  _356
REMARK  142  A    between atoms: _356  and  _357
REMARK  143  A    between atoms: _356  and  _359
REMARK  144  A    between atoms: _359  and  _360
REMARK  145  A    between atoms: _363  and  _365
REMARK  146  A    between atoms: _365  and  _366
REMARK  147  A    between atoms: _365  and  _368
REMARK  148  A    between atoms: _371  and  _373
REMARK  149  A    between atoms: _373  and  _374
REMARK  150  A    between atoms: _373  and  _376
REMARK  151  A    between atoms: _376  and  _377
REMARK  152  A    between atoms: _382  and  _383
REMARK  153  A    between atoms: _385  and  _387
REMARK  154  A    between atoms: _387  and  _388
REMARK  155  A    between atoms: _387  and  _390
REMARK  156  A    between atoms: _390  and  _391
REMARK  157  A    between atoms: _391  and  _392
REMARK  158  A    between atoms: _395  and  _397
REMARK  159  A    between atoms: _397  and  _398
REMARK  160  A    between atoms: _397  and  _400
REMARK  161  A    between atoms: _400  and  _401
REMARK  162  A    between atoms: _401  and  _402
REMARK  163  A    between atoms: _407  and  _409
REMARK  164  A    between atoms: _409  and  _410
REMARK  165  A    between atoms: _409  and  _412
REMARK  166  A    between atoms: _412  and  _413
REMARK  167  A    between atoms: _413  and  _414
REMARK  168  A    between atoms: _414  and  _415
REMARK  169  A    between atoms: _424  and  _426
REMARK  170  A    between atoms: _426  and  _427
REMARK  171  A    between atoms: _426  and  _429
REMARK  172  A    between atoms: _429  and  _430
REMARK  173  A    between atoms: _430  and  _431
REMARK  174  A    between atoms: _431  and  _432
REMARK  175  A    between atoms: _441  and  _443
REMARK  176  A    between atoms: _443  and  _444
REMARK  177  A    between atoms: _443  and  _446
REMARK  178  A    between atoms: _446  and  _447
REMARK  179  A    between atoms: _450  and  _451
REMARK  180  A    between atoms: _456  and  _458
REMARK  181  A    between atoms: _458  and  _459
REMARK  182  A    between atoms: _458  and  _461
REMARK  183  A    between atoms: _461  and  _462
REMARK  184  A    between atoms: _465  and  _467
REMARK  185  A    between atoms: _467  and  _468
REMARK  186  A    between atoms: _471  and  _473
REMARK  187  A    between atoms: _473  and  _474
REMARK  188  A    between atoms: _473  and  _476
REMARK  189  A    between atoms: _479  and  _481
REMARK  190  A    between atoms: _481  and  _482
REMARK  191  A    between atoms: _481  and  _484
REMARK  192  A    between atoms: _484  and  _485
REMARK  193  A    between atoms: _485  and  _486
REMARK  194  A    between atoms: _488  and  _490
REMARK  195  A    between atoms: _490  and  _491
REMARK  196  A    between atoms: _490  and  _493
REMARK  197  A    between atoms: _493  and  _494
REMARK  198  A    between atoms: _500  and  _502
REMARK  199  A    between atoms: _502  and  _503
REMARK  200  A    between atoms: _502  and  _505
REMARK  201  A    between atoms: _505  and  _506
REMARK  202  A    between atoms: _510  and  _511
REMARK  203  A    between atoms: _516  and  _518
REMARK  204  A    between atoms: _518  and  _519
REMARK  205  A    between atoms: _522  and  _524
REMARK  206  A    between atoms: _524  and  _525
REMARK  207  A    between atoms: _524  and  _527
REMARK  208  A    between atoms: _527  and  _528
REMARK  209  A    between atoms: _531  and  _533
REMARK  210  A    between atoms: _533  and  _534
REMARK  211  A    between atoms: _533  and  _536
REMARK  212  A    between atoms: _536  and  _537
REMARK  213  A    between atoms: _539  and  _541
REMARK  214  A    between atoms: _541  and  _542
REMARK  215  A    between atoms: _541  and  _544
REMARK  216  A    between atoms: _544  and  _545
REMARK  217  A    between atoms: _547  and  _549
REMARK  218  A    between atoms: _549  and  _550
REMARK  219  A    between atoms: _549  and  _552
REMARK  220  A    between atoms: _552  and  _553
REMARK  221  A    between atoms: _558  and  _559
REMARK  222  A    between atoms: _561  and  _563
REMARK  223  A    between atoms: _563  and  _564
REMARK  224  A    between atoms: _563  and  _566
REMARK  225  A    between atoms: _566  and  _567
REMARK  226  A    between atoms: _572  and  _573
REMARK  227  A    between atoms: _575  and  _577
REMARK  228  A    between atoms: _577  and  _578
REMARK                            x       y       z     vdW  Elec       q    Type
REMARK                         _______ _______ _______ _____ _____    ______ ____
ROOT
ATOM      1  O   HOH     1      -6.702  -1.965 -16.122  0.00  0.00    +0.000 OA
ENDROOT
TORSDOF 0
