REMARK  Name = ../refined-set-2016/4a6c/4a6c_pocket.pdb
REMARK  238 active torsions:
REMARK  status: ('A' for Active; 'I' for Inactive)
REMARK    1  A    between atoms: _1  and  _3
REMARK    2  A    between atoms: _3  and  _4
REMARK    3  A    between atoms: _3  and  _6
REMARK    4  A    between atoms: _6  and  _7
REMARK    5  A    between atoms: _7  and  _8
REMARK    6  A    between atoms: _8  and  _9
REMARK    7  A    between atoms: _18  and  _20
REMARK    8  A    between atoms: _20  and  _21
REMARK    9  A    between atoms: _20  and  _23
REMARK   10  A    between atoms: _23  and  _24
REMARK   11  A    between atoms: _27  and  _29
REMARK   12  A    between atoms: _29  and  _30
REMARK   13  A    between atoms: _29  and  _32
REMARK   14  A    between atoms: _32  and  _33
REMARK   15  A    between atoms: _36  and  _38
REMARK   16  A    between atoms: _38  and  _39
REMARK   17  A    between atoms: _38  and  _41
REMARK   18  A    between atoms: _41  and  _42
REMARK   19  A    between atoms: _45  and  _47
REMARK   20  A    between atoms: _47  and  _48
REMARK   21  A    between atoms: _47  and  _50
REMARK   22  A    between atoms: _50  and  _51
REMARK   23  A    between atoms: _54  and  _56
REMARK   24  A    between atoms: _56  and  _57
REMARK   25  A    between atoms: _59  and  _61
REMARK   26  A    between atoms: _61  and  _62
REMARK   27  A    between atoms: _65  and  _67
REMARK   28  A    between atoms: _67  and  _68
REMARK   29  A    between atoms: _67  and  _70
REMARK   30  A    between atoms: _70  and  _71
REMARK   31  A    between atoms: _74  and  _76
REMARK   32  A    between atoms: _76  and  _77
REMARK   33  A    between atoms: _76  and  _79
REMARK   34  A    between atoms: _79  and  _80
REMARK   35  A    between atoms: _83  and  _85
REMARK   36  A    between atoms: _85  and  _86
REMARK   37  A    between atoms: _85  and  _88
REMARK   38  A    between atoms: _88  and  _89
REMARK   39  A    between atoms: _92  and  _94
REMARK   40  A    between atoms: _94  and  _95
REMARK   41  A    between atoms: _94  and  _97
REMARK   42  A    between atoms: _100  and  _102
REMARK   43  A    between atoms: _102  and  _103
REMARK   44  A    between atoms: _102  and  _105
REMARK   45  A    between atoms: _105  and  _106
REMARK   46  A    between atoms: _106  and  _107
REMARK   47  A    between atoms: _107  and  _108
REMARK   48  A    between atoms: _108  and  _109
REMARK   49  A    between atoms: _113  and  _115
REMARK   50  A    between atoms: _115  and  _116
REMARK   51  A    between atoms: _115  and  _118
REMARK   52  A    between atoms: _118  and  _119
REMARK   53  A    between atoms: _119  and  _120
REMARK   54  A    between atoms: _122  and  _124
REMARK   55  A    between atoms: _124  and  _125
REMARK   56  A    between atoms: _124  and  _127
REMARK   57  A    between atoms: _127  and  _128
REMARK   58  A    between atoms: _131  and  _133
REMARK   59  A    between atoms: _133  and  _134
REMARK   60  A    between atoms: _136  and  _138
REMARK   61  A    between atoms: _138  and  _139
REMARK   62  A    between atoms: _141  and  _143
REMARK   63  A    between atoms: _143  and  _144
REMARK   64  A    between atoms: _143  and  _146
REMARK   65  A    between atoms: _146  and  _147
REMARK   66  A    between atoms: _150  and  _152
REMARK   67  A    between atoms: _152  and  _153
REMARK   68  A    between atoms: _155  and  _157
REMARK   69  A    between atoms: _157  and  _158
REMARK   70  A    between atoms: _160  and  _162
REMARK   71  A    between atoms: _162  and  _163
REMARK   72  A    between atoms: _162  and  _165
REMARK   73  A    between atoms: _165  and  _166
REMARK   74  A    between atoms: _172  and  _174
REMARK   75  A    between atoms: _174  and  _175
REMARK   76  A    between atoms: _174  and  _177
REMARK   77  A    between atoms: _177  and  _178
REMARK   78  A    between atoms: _181  and  _183
REMARK   79  A    between atoms: _183  and  _184
REMARK   80  A    between atoms: _183  and  _186
REMARK   81  A    between atoms: _189  and  _191
REMARK   82  A    between atoms: _191  and  _192
REMARK   83  A    between atoms: _191  and  _194
REMARK   84  A    between atoms: _194  and  _195
REMARK   85  A    between atoms: _198  and  _200
REMARK   86  A    between atoms: _200  and  _201
REMARK   87  A    between atoms: _200  and  _203
REMARK   88  A    between atoms: _203  and  _204
REMARK   89  A    between atoms: _208  and  _209
REMARK   90  A    between atoms: _214  and  _216
REMARK   91  A    between atoms: _216  and  _217
REMARK   92  A    between atoms: _216  and  _219
REMARK   93  A    between atoms: _219  and  _220
REMARK   94  A    between atoms: _223  and  _225
REMARK   95  A    between atoms: _225  and  _226
REMARK   96  A    between atoms: _225  and  _228
REMARK   97  A    between atoms: _228  and  _229
REMARK   98  A    between atoms: _234  and  _236
REMARK   99  A    between atoms: _236  and  _237
REMARK  100  A    between atoms: _236  and  _239
REMARK  101  A    between atoms: _242  and  _244
REMARK  102  A    between atoms: _244  and  _245
REMARK  103  A    between atoms: _244  and  _247
REMARK  104  A    between atoms: _247  and  _248
REMARK  105  A    between atoms: _251  and  _253
REMARK  106  A    between atoms: _253  and  _254
REMARK  107  A    between atoms: _256  and  _258
REMARK  108  A    between atoms: _258  and  _259
REMARK  109  A    between atoms: _258  and  _261
REMARK  110  A    between atoms: _261  and  _262
REMARK  111  A    between atoms: _262  and  _263
REMARK  112  A    between atoms: _263  and  _264
REMARK  113  A    between atoms: _273  and  _275
REMARK  114  A    between atoms: _275  and  _276
REMARK  115  A    between atoms: _275  and  _278
REMARK  116  A    between atoms: _278  and  _279
REMARK  117  A    between atoms: _284  and  _286
REMARK  118  A    between atoms: _286  and  _287
REMARK  119  A    between atoms: _286  and  _289
REMARK  120  A    between atoms: _289  and  _290
REMARK  121  A    between atoms: _290  and  _291
REMARK  122  A    between atoms: _291  and  _292
REMARK  123  A    between atoms: _301  and  _303
REMARK  124  A    between atoms: _303  and  _304
REMARK  125  A    between atoms: _303  and  _306
REMARK  126  A    between atoms: _306  and  _307
REMARK  127  A    between atoms: _310  and  _312
REMARK  128  A    between atoms: _312  and  _313
REMARK  129  A    between atoms: _312  and  _315
REMARK  130  A    between atoms: _315  and  _316
REMARK  131  A    between atoms: _319  and  _321
REMARK  132  A    between atoms: _321  and  _322
REMARK  133  A    between atoms: _321  and  _324
REMARK  134  A    between atoms: _324  and  _325
REMARK  135  A    between atoms: _328  and  _330
REMARK  136  A    between atoms: _330  and  _331
REMARK  137  A    between atoms: _330  and  _333
REMARK  138  A    between atoms: _333  and  _334
REMARK  139  A    between atoms: _337  and  _339
REMARK  140  A    between atoms: _339  and  _340
REMARK  141  A    between atoms: _339  and  _342
REMARK  142  A    between atoms: _342  and  _343
REMARK  143  A    between atoms: _346  and  _348
REMARK  144  A    between atoms: _348  and  _349
REMARK  145  A    between atoms: _351  and  _353
REMARK  146  A    between atoms: _353  and  _354
REMARK  147  A    between atoms: _357  and  _359
REMARK  148  A    between atoms: _359  and  _360
REMARK  149  A    between atoms: _359  and  _362
REMARK  150  A    between atoms: _362  and  _363
REMARK  151  A    between atoms: _366  and  _368
REMARK  152  A    between atoms: _368  and  _369
REMARK  153  A    between atoms: _368  and  _371
REMARK  154  A    between atoms: _371  and  _372
REMARK  155  A    between atoms: _375  and  _377
REMARK  156  A    between atoms: _377  and  _378
REMARK  157  A    between atoms: _377  and  _380
REMARK  158  A    between atoms: _380  and  _381
REMARK  159  A    between atoms: _384  and  _386
REMARK  160  A    between atoms: _386  and  _387
REMARK  161  A    between atoms: _386  and  _389
REMARK  162  A    between atoms: _392  and  _394
REMARK  163  A    between atoms: _394  and  _395
REMARK  164  A    between atoms: _394  and  _397
REMARK  165  A    between atoms: _397  and  _398
REMARK  166  A    between atoms: _398  and  _399
REMARK  167  A    between atoms: _402  and  _404
REMARK  168  A    between atoms: _404  and  _405
REMARK  169  A    between atoms: _404  and  _407
REMARK  170  A    between atoms: _407  and  _408
REMARK  171  A    between atoms: _408  and  _409
REMARK  172  A    between atoms: _409  and  _410
REMARK  173  A    between atoms: _410  and  _411
REMARK  174  A    between atoms: _415  and  _417
REMARK  175  A    between atoms: _417  and  _418
REMARK  176  A    between atoms: _417  and  _420
REMARK  177  A    between atoms: _420  and  _421
REMARK  178  A    between atoms: _421  and  _422
REMARK  179  A    between atoms: _424  and  _426
REMARK  180  A    between atoms: _426  and  _427
REMARK  181  A    between atoms: _426  and  _429
REMARK  182  A    between atoms: _429  and  _430
REMARK  183  A    between atoms: _433  and  _435
REMARK  184  A    between atoms: _435  and  _436
REMARK  185  A    between atoms: _438  and  _440
REMARK  186  A    between atoms: _440  and  _441
REMARK  187  A    between atoms: _443  and  _445
REMARK  188  A    between atoms: _445  and  _446
REMARK  189  A    between atoms: _445  and  _448
REMARK  190  A    between atoms: _448  and  _449
REMARK  191  A    between atoms: _452  and  _454
REMARK  192  A    between atoms: _454  and  _455
REMARK  193  A    between atoms: _457  and  _459
REMARK  194  A    between atoms: _459  and  _460
REMARK  195  A    between atoms: _462  and  _464
REMARK  196  A    between atoms: _464  and  _465
REMARK  197  A    between atoms: _464  and  _467
REMARK  198  A    between atoms: _467  and  _468
REMARK  199  A    between atoms: _474  and  _476
REMARK  200  A    between atoms: _476  and  _477
REMARK  201  A    between atoms: _476  and  _479
REMARK  202  A    between atoms: _479  and  _480
REMARK  203  A    between atoms: _483  and  _485
REMARK  204  A    between atoms: _485  and  _486
REMARK  205  A    between atoms: _485  and  _488
REMARK  206  A    between atoms: _491  and  _493
REMARK  207  A    between atoms: _493  and  _494
REMARK  208  A    between atoms: _493  and  _496
REMARK  209  A    between atoms: _496  and  _497
REMARK  210  A    between atoms: _501  and  _502
REMARK  211  A    between atoms: _507  and  _509
REMARK  212  A    between atoms: _509  and  _510
REMARK  213  A    between atoms: _509  and  _512
REMARK  214  A    between atoms: _512  and  _513
REMARK  215  A    between atoms: _517  and  _518
REMARK  216  A    between atoms: _523  and  _525
REMARK  217  A    between atoms: _525  and  _526
REMARK  218  A    between atoms: _525  and  _528
REMARK  219  A    between atoms: _528  and  _529
REMARK  220  A    between atoms: _532  and  _534
REMARK  221  A    between atoms: _534  and  _535
REMARK  222  A    between atoms: _534  and  _537
REMARK  223  A    between atoms: _537  and  _538
REMARK  224  A    between atoms: _543  and  _545
REMARK  225  A    between atoms: _545  and  _546
REMARK  226  A    between atoms: _545  and  _548
REMARK  227  A    between atoms: _551  and  _553
REMARK  228  A    between atoms: _553  and  _554
REMARK  229  A    between atoms: _553  and  _556
REMARK  230  A    between atoms: _556  and  _557
REMARK  231  A    between atoms: _560  and  _562
REMARK  232  A    between atoms: _562  and  _563
REMARK  233  A    between atoms: _565  and  _567
REMARK  234  A    between atoms: _567  and  _568
REMARK  235  A    between atoms: _567  and  _570
REMARK  236  A    between atoms: _570  and  _571
REMARK  237  A    between atoms: _571  and  _572
REMARK  238  A    between atoms: _572  and  _573
REMARK                            x       y       z     vdW  Elec       q    Type
REMARK                         _______ _______ _______ _____ _____    ______ ____
ROOT
ATOM      1  NE  ARG A   1      24.165  20.836   7.629  0.00  0.00    -0.265 N 
ATOM      2  CZ  ARG A   1      24.108  19.747   8.390  0.00  0.00    +0.342 C 
ATOM      3  NH2 ARG A   1      24.477  19.800   9.663  0.00  0.00    -0.292 N 
ATOM      4 HH21 ARG A   1      24.431  18.945  10.254  0.00  0.00    +0.255 HD
ATOM      5 HH22 ARG A   1      24.813  20.696  10.070  0.00  0.00    +0.255 HD
ATOM      6  NH1 ARG A   1      23.682  18.601   7.877  0.00  0.00    -0.292 N 
ATOM      7 HH11 ARG A   1      23.637  17.749   8.472  0.00  0.00    +0.255 HD
ATOM      8 HH12 ARG A   1      23.392  18.554   6.879  0.00  0.00    +0.255 HD
ATOM      9  HE  ARG A   1      23.869  20.748   6.636  0.00  0.00    +0.259 HD
ENDROOT
BRANCH   1  10
ATOM     10  CD  ARG A   1      24.614  22.145   8.090  0.00  0.00    +0.174 C 
BRANCH  10  11
ATOM     11  CG  ARG A   1      24.816  23.086   6.923  0.00  0.00    +0.045 C 
BRANCH  11  12
ATOM     12  CB  ARG A   1      25.256  24.462   7.375  0.00  0.00    +0.029 C 
BRANCH  12  13
ATOM     13  CA  ARG A   1      25.775  25.336   6.235  0.00  0.00    +0.133 C 
BRANCH  13  14
ATOM     14  N   ARG A   1      27.008  24.774   5.695  0.00  0.00    -0.239 NA
ATOM     15  H   ARG A   1      27.381  23.893   6.103  0.00  0.00    +0.142 HD
ENDBRANCH  13  14
BRANCH  13  16
ATOM     16  C   ARG A   1      26.066  26.737   6.761  0.00  0.00    +0.224 C 
ATOM     17  O   ARG A   1      27.037  26.940   7.491  0.00  0.00    -0.287 OA
ENDBRANCH  13  16
ENDBRANCH  12  13
ENDBRANCH  11  12
ENDBRANCH  10  11
ENDBRANCH   1  10
TORSDOF 6
REMARK  Name = ../refined-set-2016/4a6c/4a6c_pocket.pdb
REMARK  238 active torsions:
REMARK  status: ('A' for Active; 'I' for Inactive)
REMARK    1  A    between atoms: _1  and  _3
REMARK    2  A    between atoms: _3  and  _4
REMARK    3  A    between atoms: _3  and  _6
REMARK    4  A    between atoms: _6  and  _7
REMARK    5  A    between atoms: _7  and  _8
REMARK    6  A    between atoms: _8  and  _9
REMARK    7  A    between atoms: _18  and  _20
REMARK    8  A    between atoms: _20  and  _21
REMARK    9  A    between atoms: _20  and  _23
REMARK   10  A    between atoms: _23  and  _24
REMARK   11  A    between atoms: _27  and  _29
REMARK   12  A    between atoms: _29  and  _30
REMARK   13  A    between atoms: _29  and  _32
REMARK   14  A    between atoms: _32  and  _33
REMARK   15  A    between atoms: _36  and  _38
REMARK   16  A    between atoms: _38  and  _39
REMARK   17  A    between atoms: _38  and  _41
REMARK   18  A    between atoms: _41  and  _42
REMARK   19  A    between atoms: _45  and  _47
REMARK   20  A    between atoms: _47  and  _48
REMARK   21  A    between atoms: _47  and  _50
REMARK   22  A    between atoms: _50  and  _51
REMARK   23  A    between atoms: _54  and  _56
REMARK   24  A    between atoms: _56  and  _57
REMARK   25  A    between atoms: _59  and  _61
REMARK   26  A    between atoms: _61  and  _62
REMARK   27  A    between atoms: _65  and  _67
REMARK   28  A    between atoms: _67  and  _68
REMARK   29  A    between atoms: _67  and  _70
REMARK   30  A    between atoms: _70  and  _71
REMARK   31  A    between atoms: _74  and  _76
REMARK   32  A    between atoms: _76  and  _77
REMARK   33  A    between atoms: _76  and  _79
REMARK   34  A    between atoms: _79  and  _80
REMARK   35  A    between atoms: _83  and  _85
REMARK   36  A    between atoms: _85  and  _86
REMARK   37  A    between atoms: _85  and  _88
REMARK   38  A    between atoms: _88  and  _89
REMARK   39  A    between atoms: _92  and  _94
REMARK   40  A    between atoms: _94  and  _95
REMARK   41  A    between atoms: _94  and  _97
REMARK   42  A    between atoms: _100  and  _102
REMARK   43  A    between atoms: _102  and  _103
REMARK   44  A    between atoms: _102  and  _105
REMARK   45  A    between atoms: _105  and  _106
REMARK   46  A    between atoms: _106  and  _107
REMARK   47  A    between atoms: _107  and  _108
REMARK   48  A    between atoms: _108  and  _109
REMARK   49  A    between atoms: _113  and  _115
REMARK   50  A    between atoms: _115  and  _116
REMARK   51  A    between atoms: _115  and  _118
REMARK   52  A    between atoms: _118  and  _119
REMARK   53  A    between atoms: _119  and  _120
REMARK   54  A    between atoms: _122  and  _124
REMARK   55  A    between atoms: _124  and  _125
REMARK   56  A    between atoms: _124  and  _127
REMARK   57  A    between atoms: _127  and  _128
REMARK   58  A    between atoms: _131  and  _133
REMARK   59  A    between atoms: _133  and  _134
REMARK   60  A    between atoms: _136  and  _138
REMARK   61  A    between atoms: _138  and  _139
REMARK   62  A    between atoms: _141  and  _143
REMARK   63  A    between atoms: _143  and  _144
REMARK   64  A    between atoms: _143  and  _146
REMARK   65  A    between atoms: _146  and  _147
REMARK   66  A    between atoms: _150  and  _152
REMARK   67  A    between atoms: _152  and  _153
REMARK   68  A    between atoms: _155  and  _157
REMARK   69  A    between atoms: _157  and  _158
REMARK   70  A    between atoms: _160  and  _162
REMARK   71  A    between atoms: _162  and  _163
REMARK   72  A    between atoms: _162  and  _165
REMARK   73  A    between atoms: _165  and  _166
REMARK   74  A    between atoms: _172  and  _174
REMARK   75  A    between atoms: _174  and  _175
REMARK   76  A    between atoms: _174  and  _177
REMARK   77  A    between atoms: _177  and  _178
REMARK   78  A    between atoms: _181  and  _183
REMARK   79  A    between atoms: _183  and  _184
REMARK   80  A    between atoms: _183  and  _186
REMARK   81  A    between atoms: _189  and  _191
REMARK   82  A    between atoms: _191  and  _192
REMARK   83  A    between atoms: _191  and  _194
REMARK   84  A    between atoms: _194  and  _195
REMARK   85  A    between atoms: _198  and  _200
REMARK   86  A    between atoms: _200  and  _201
REMARK   87  A    between atoms: _200  and  _203
REMARK   88  A    between atoms: _203  and  _204
REMARK   89  A    between atoms: _208  and  _209
REMARK   90  A    between atoms: _214  and  _216
REMARK   91  A    between atoms: _216  and  _217
REMARK   92  A    between atoms: _216  and  _219
REMARK   93  A    between atoms: _219  and  _220
REMARK   94  A    between atoms: _223  and  _225
REMARK   95  A    between atoms: _225  and  _226
REMARK   96  A    between atoms: _225  and  _228
REMARK   97  A    between atoms: _228  and  _229
REMARK   98  A    between atoms: _234  and  _236
REMARK   99  A    between atoms: _236  and  _237
REMARK  100  A    between atoms: _236  and  _239
REMARK  101  A    between atoms: _242  and  _244
REMARK  102  A    between atoms: _244  and  _245
REMARK  103  A    between atoms: _244  and  _247
REMARK  104  A    between atoms: _247  and  _248
REMARK  105  A    between atoms: _251  and  _253
REMARK  106  A    between atoms: _253  and  _254
REMARK  107  A    between atoms: _256  and  _258
REMARK  108  A    between atoms: _258  and  _259
REMARK  109  A    between atoms: _258  and  _261
REMARK  110  A    between atoms: _261  and  _262
REMARK  111  A    between atoms: _262  and  _263
REMARK  112  A    between atoms: _263  and  _264
REMARK  113  A    between atoms: _273  and  _275
REMARK  114  A    between atoms: _275  and  _276
REMARK  115  A    between atoms: _275  and  _278
REMARK  116  A    between atoms: _278  and  _279
REMARK  117  A    between atoms: _284  and  _286
REMARK  118  A    between atoms: _286  and  _287
REMARK  119  A    between atoms: _286  and  _289
REMARK  120  A    between atoms: _289  and  _290
REMARK  121  A    between atoms: _290  and  _291
REMARK  122  A    between atoms: _291  and  _292
REMARK  123  A    between atoms: _301  and  _303
REMARK  124  A    between atoms: _303  and  _304
REMARK  125  A    between atoms: _303  and  _306
REMARK  126  A    between atoms: _306  and  _307
REMARK  127  A    between atoms: _310  and  _312
REMARK  128  A    between atoms: _312  and  _313
REMARK  129  A    between atoms: _312  and  _315
REMARK  130  A    between atoms: _315  and  _316
REMARK  131  A    between atoms: _319  and  _321
REMARK  132  A    between atoms: _321  and  _322
REMARK  133  A    between atoms: _321  and  _324
REMARK  134  A    between atoms: _324  and  _325
REMARK  135  A    between atoms: _328  and  _330
REMARK  136  A    between atoms: _330  and  _331
REMARK  137  A    between atoms: _330  and  _333
REMARK  138  A    between atoms: _333  and  _334
REMARK  139  A    between atoms: _337  and  _339
REMARK  140  A    between atoms: _339  and  _340
REMARK  141  A    between atoms: _339  and  _342
REMARK  142  A    between atoms: _342  and  _343
REMARK  143  A    between atoms: _346  and  _348
REMARK  144  A    between atoms: _348  and  _349
REMARK  145  A    between atoms: _351  and  _353
REMARK  146  A    between atoms: _353  and  _354
REMARK  147  A    between atoms: _357  and  _359
REMARK  148  A    between atoms: _359  and  _360
REMARK  149  A    between atoms: _359  and  _362
REMARK  150  A    between atoms: _362  and  _363
REMARK  151  A    between atoms: _366  and  _368
REMARK  152  A    between atoms: _368  and  _369
REMARK  153  A    between atoms: _368  and  _371
REMARK  154  A    between atoms: _371  and  _372
REMARK  155  A    between atoms: _375  and  _377
REMARK  156  A    between atoms: _377  and  _378
REMARK  157  A    between atoms: _377  and  _380
REMARK  158  A    between atoms: _380  and  _381
REMARK  159  A    between atoms: _384  and  _386
REMARK  160  A    between atoms: _386  and  _387
REMARK  161  A    between atoms: _386  and  _389
REMARK  162  A    between atoms: _392  and  _394
REMARK  163  A    between atoms: _394  and  _395
REMARK  164  A    between atoms: _394  and  _397
REMARK  165  A    between atoms: _397  and  _398
REMARK  166  A    between atoms: _398  and  _399
REMARK  167  A    between atoms: _402  and  _404
REMARK  168  A    between atoms: _404  and  _405
REMARK  169  A    between atoms: _404  and  _407
REMARK  170  A    between atoms: _407  and  _408
REMARK  171  A    between atoms: _408  and  _409
REMARK  172  A    between atoms: _409  and  _410
REMARK  173  A    between atoms: _410  and  _411
REMARK  174  A    between atoms: _415  and  _417
REMARK  175  A    between atoms: _417  and  _418
REMARK  176  A    between atoms: _417  and  _420
REMARK  177  A    between atoms: _420  and  _421
REMARK  178  A    between atoms: _421  and  _422
REMARK  179  A    between atoms: _424  and  _426
REMARK  180  A    between atoms: _426  and  _427
REMARK  181  A    between atoms: _426  and  _429
REMARK  182  A    between atoms: _429  and  _430
REMARK  183  A    between atoms: _433  and  _435
REMARK  184  A    between atoms: _435  and  _436
REMARK  185  A    between atoms: _438  and  _440
REMARK  186  A    between atoms: _440  and  _441
REMARK  187  A    between atoms: _443  and  _445
REMARK  188  A    between atoms: _445  and  _446
REMARK  189  A    between atoms: _445  and  _448
REMARK  190  A    between atoms: _448  and  _449
REMARK  191  A    between atoms: _452  and  _454
REMARK  192  A    between atoms: _454  and  _455
REMARK  193  A    between atoms: _457  and  _459
REMARK  194  A    between atoms: _459  and  _460
REMARK  195  A    between atoms: _462  and  _464
REMARK  196  A    between atoms: _464  and  _465
REMARK  197  A    between atoms: _464  and  _467
REMARK  198  A    between atoms: _467  and  _468
REMARK  199  A    between atoms: _474  and  _476
REMARK  200  A    between atoms: _476  and  _477
REMARK  201  A    between atoms: _476  and  _479
REMARK  202  A    between atoms: _479  and  _480
REMARK  203  A    between atoms: _483  and  _485
REMARK  204  A    between atoms: _485  and  _486
REMARK  205  A    between atoms: _485  and  _488
REMARK  206  A    between atoms: _491  and  _493
REMARK  207  A    between atoms: _493  and  _494
REMARK  208  A    between atoms: _493  and  _496
REMARK  209  A    between atoms: _496  and  _497
REMARK  210  A    between atoms: _501  and  _502
REMARK  211  A    between atoms: _507  and  _509
REMARK  212  A    between atoms: _509  and  _510
REMARK  213  A    between atoms: _509  and  _512
REMARK  214  A    between atoms: _512  and  _513
REMARK  215  A    between atoms: _517  and  _518
REMARK  216  A    between atoms: _523  and  _525
REMARK  217  A    between atoms: _525  and  _526
REMARK  218  A    between atoms: _525  and  _528
REMARK  219  A    between atoms: _528  and  _529
REMARK  220  A    between atoms: _532  and  _534
REMARK  221  A    between atoms: _534  and  _535
REMARK  222  A    between atoms: _534  and  _537
REMARK  223  A    between atoms: _537  and  _538
REMARK  224  A    between atoms: _543  and  _545
REMARK  225  A    between atoms: _545  and  _546
REMARK  226  A    between atoms: _545  and  _548
REMARK  227  A    between atoms: _551  and  _553
REMARK  228  A    between atoms: _553  and  _554
REMARK  229  A    between atoms: _553  and  _556
REMARK  230  A    between atoms: _556  and  _557
REMARK  231  A    between atoms: _560  and  _562
REMARK  232  A    between atoms: _562  and  _563
REMARK  233  A    between atoms: _565  and  _567
REMARK  234  A    between atoms: _567  and  _568
REMARK  235  A    between atoms: _567  and  _570
REMARK  236  A    between atoms: _570  and  _571
REMARK  237  A    between atoms: _571  and  _572
REMARK  238  A    between atoms: _572  and  _573
REMARK                            x       y       z     vdW  Elec       q    Type
REMARK                         _______ _______ _______ _____ _____    ______ ____
ROOT
ATOM      1  C   GLY A   5      12.301  29.277   3.560  0.00  0.00    +0.243 C 
ATOM      2  N   ALA A   6      12.721  29.755   4.725  0.00  0.00    -0.297 N 
ATOM      3  H   ALA A   6      13.728  29.989   4.837  0.00  0.00    +0.150 HD
ATOM      4  O   GLY A   5      11.119  29.015   3.335  0.00  0.00    -0.273 OA
ENDROOT
BRANCH   2   5
ATOM      5  CA  ALA A   6      11.819  29.965   5.856  0.00  0.00    +0.149 C 
ATOM      6  CB  ALA A   6      12.587  29.763   7.163  0.00  0.00    +0.031 C 
BRANCH   5   7
ATOM      7  C   ALA A   6      11.158  31.338   5.863  0.00  0.00    +0.241 C 
ATOM      8  N   ASP A   7       9.827  31.369   5.961  0.00  0.00    -0.297 N 
ATOM      9  H   ASP A   7       9.296  30.476   6.009  0.00  0.00    +0.150 HD
ATOM     10  O   ALA A   6      11.845  32.359   5.798  0.00  0.00    -0.273 OA
BRANCH   8  11
ATOM     11  CA  ASP A   7       9.104  32.642   6.002  0.00  0.00    +0.160 C 
BRANCH  11  12
ATOM     12  C   ASP A   7       9.468  33.418   7.267  0.00  0.00    +0.241 C 
ATOM     13  N   ASP A   8       9.593  32.694   8.378  0.00  0.00    -0.297 N 
ATOM     14  H   ASP A   8       9.456  31.665   8.323  0.00  0.00    +0.150 HD
ATOM     15  O   ASP A   7       9.627  34.638   7.233  0.00  0.00    -0.273 OA
BRANCH  13  16
ATOM     16  CA  ASP A   8       9.915  33.291   9.667  0.00  0.00    +0.160 C 
BRANCH  16  17
ATOM     17  C   ASP A   8      10.946  32.458  10.407  0.00  0.00    +0.241 C 
ATOM     18  N   THR A   9      11.575  33.076  11.398  0.00  0.00    -0.295 N 
ATOM     19  H   THR A   9      11.345  34.072  11.588  0.00  0.00    +0.150 HD
ATOM     20  O   ASP A   8      11.155  31.288  10.097  0.00  0.00    -0.273 OA
BRANCH  18  21
ATOM     21  CA  THR A   9      12.573  32.420  12.231  0.00  0.00    +0.176 C 
BRANCH  21  22
ATOM     22  C   THR A   9      11.882  31.382  13.125  0.00  0.00    +0.243 C 
ATOM     23  O   THR A   9      10.816  31.645  13.676  0.00  0.00    -0.273 OA
ATOM     24  N   VAL A  10      12.487  30.203  13.250  0.00  0.00    -0.298 N 
ATOM     25  H   VAL A  10      13.377  30.034  12.739  0.00  0.00    +0.150 HD
BRANCH  24  26
ATOM     26  CA  VAL A  10      11.935  29.140  14.086  0.00  0.00    +0.137 C 
BRANCH  26  27
ATOM     27  CB  VAL A  10      11.428  27.940  13.248  0.00  0.00    +0.026 C 
ATOM     28  CG2 VAL A  10      10.663  26.980  14.143  0.00  0.00    +0.002 C 
ATOM     29  CG1 VAL A  10      10.541  28.421  12.103  0.00  0.00    +0.002 C 
ENDBRANCH  26  27
BRANCH  26  30
ATOM     30  C   VAL A  10      13.037  28.657  15.020  0.00  0.00    +0.227 C 
ATOM     31  O   VAL A  10      14.114  28.253  14.571  0.00  0.00    -0.286 OA
ENDBRANCH  26  30
ENDBRANCH  24  26
ENDBRANCH  21  22
BRANCH  21  32
ATOM     32  CB  THR A   9      13.288  33.477  13.103  0.00  0.00    +0.137 C 
ATOM     33  CG2 THR A   9      14.218  32.826  14.116  0.00  0.00    +0.034 C 
BRANCH  32  34
ATOM     34  OG1 THR A   9      14.038  34.355  12.251  0.00  0.00    -0.382 OA
ATOM     35  HG1 THR A   9      13.423  34.804  11.618  0.00  0.00    +0.210 HD
ENDBRANCH  32  34
ENDBRANCH  21  32
ENDBRANCH  18  21
ENDBRANCH  16  17
BRANCH  16  36
ATOM     36  CB  ASP A   8       8.660  33.384  10.540  0.00  0.00    +0.143 C 
BRANCH  36  37
ATOM     37  CG  ASP A   8       7.654  34.385  10.014  0.00  0.00    +0.367 C 
ATOM     38  OD2 ASP A   8       7.893  35.605  10.155  0.00  0.00    -0.246 OA
ATOM     39  OD1 ASP A   8       6.625  33.951   9.454  0.00  0.00    -0.246 OA
ENDBRANCH  36  37
ENDBRANCH  16  36
ENDBRANCH  13  16
ENDBRANCH  11  12
BRANCH  11  40
ATOM     40  CB  ASP A   7       7.579  32.433   5.999  0.00  0.00    +0.143 C 
BRANCH  40  41
ATOM     41  CG  ASP A   7       7.041  31.925   4.666  0.00  0.00    +0.367 C 
ATOM     42  OD2 ASP A   7       5.903  31.404   4.659  0.00  0.00    -0.246 OA
ATOM     43  OD1 ASP A   7       7.729  32.061   3.629  0.00  0.00    -0.246 OA
ENDBRANCH  40  41
ENDBRANCH  11  40
ENDBRANCH   8  11
ENDBRANCH   5   7
ENDBRANCH   2   5
BRANCH   1  44
ATOM     44  CA  GLY A   5      13.360  29.079   2.478  0.00  0.00    +0.176 C 
BRANCH  44  46
ATOM     45  C   THR A   4      14.727  31.066   2.410  0.00  0.00    +0.243 C 
ATOM     46  N   GLY A   5      14.600  29.785   2.745  0.00  0.00    -0.295 N 
ATOM     47  H   GLY A   5      15.392  29.287   3.200  0.00  0.00    +0.150 HD
ATOM     48  O   THR A   4      13.821  31.699   1.856  0.00  0.00    -0.273 OA
BRANCH  45  49
ATOM     49  CA  THR A   4      16.059  31.741   2.749  0.00  0.00    +0.176 C 
BRANCH  49  52
ATOM     50  C   ASP A   3      16.476  30.736   4.925  0.00  0.00    +0.241 C 
ATOM     51  O   ASP A   3      15.399  31.152   5.364  0.00  0.00    -0.273 OA
ATOM     52  N   THR A   4      16.880  30.961   3.677  0.00  0.00    -0.295 N 
ATOM     53  H   THR A   4      17.792  30.577   3.356  0.00  0.00    +0.150 HD
BRANCH  50  54
ATOM     54  CA  ASP A   3      17.413  29.918   5.814  0.00  0.00    +0.160 C 
BRANCH  54  56
ATOM     55  C   LEU A   2      19.601  30.586   6.640  0.00  0.00    +0.241 C 
ATOM     56  N   ASP A   3      18.280  30.690   6.692  0.00  0.00    -0.297 N 
ATOM     57  H   ASP A   3      17.851  31.342   7.380  0.00  0.00    +0.150 HD
ATOM     58  O   LEU A   2      20.190  29.920   5.789  0.00  0.00    -0.273 OA
BRANCH  55  59
ATOM     59  CA  LEU A   2      20.375  31.366   7.700  0.00  0.00    +0.149 C 
BRANCH  59  62
ATOM     60  C   LEU A   1      20.247  29.613   9.387  0.00  0.00    +0.238 C 
ATOM     61  O   LEU A   1      19.042  29.809   9.545  0.00  0.00    -0.274 OA
ATOM     62  N   LEU A   2      20.984  30.330   8.538  0.00  0.00    -0.297 N 
ATOM     63  H   LEU A   2      22.006  30.151   8.470  0.00  0.00    +0.150 HD
BRANCH  60  64
ATOM     64  CA  LEU A   1      20.961  28.529  10.190  0.00  0.00    +0.145 C 
BRANCH  64  65
ATOM     65  N   LEU A   1      20.660  28.650  11.609  0.00  0.00    -0.238 NA
ATOM     66  H   LEU A   1      19.792  28.211  11.977  0.00  0.00    +0.142 HD
ENDBRANCH  64  65
BRANCH  64  67
ATOM     67  CB  LEU A   1      20.512  27.147   9.713  0.00  0.00    +0.026 C 
BRANCH  67  68
ATOM     68  CG  LEU A   1      20.768  26.727   8.271  0.00  0.00    +0.002 C 
ATOM     69  CD2 LEU A   1      22.259  26.557   8.041  0.00  0.00    +0.000 C 
ATOM     70  CD1 LEU A   1      20.034  25.418   8.009  0.00  0.00    +0.000 C 
ENDBRANCH  67  68
ENDBRANCH  64  67
ENDBRANCH  60  64
ENDBRANCH  59  62
BRANCH  59  71
ATOM     71  CB  LEU A   2      21.447  32.246   7.053  0.00  0.00    +0.029 C 
BRANCH  71  72
ATOM     72  CG  LEU A   2      22.367  32.989   8.028  0.00  0.00    +0.002 C 
ATOM     73  CD2 LEU A   2      21.534  33.877   8.948  0.00  0.00    +0.000 C 
ATOM     74  CD1 LEU A   2      23.380  33.819   7.250  0.00  0.00    +0.000 C 
ENDBRANCH  71  72
ENDBRANCH  59  71
ENDBRANCH  55  59
ENDBRANCH  54  56
BRANCH  54  75
ATOM     75  CB  ASP A   3      16.625  28.969   6.723  0.00  0.00    +0.143 C 
BRANCH  75  76
ATOM     76  CG  ASP A   3      15.777  27.988   5.965  0.00  0.00    +0.367 C 
ATOM     77  OD2 ASP A   3      15.014  27.259   6.636  0.00  0.00    -0.246 OA
ATOM     78  OD1 ASP A   3      15.872  27.937   4.723  0.00  0.00    -0.246 OA
ENDBRANCH  75  76
ENDBRANCH  54  75
ENDBRANCH  50  54
ENDBRANCH  49  52
BRANCH  49  79
ATOM     79  CB  THR A   4      16.823  32.033   1.435  0.00  0.00    +0.137 C 
ATOM     80  CG2 THR A   4      18.058  32.878   1.705  0.00  0.00    +0.034 C 
BRANCH  79  81
ATOM     81  OG1 THR A   4      17.218  30.799   0.823  0.00  0.00    -0.382 OA
ATOM     82  HG1 THR A   4      16.413  30.259   0.623  0.00  0.00    +0.210 HD
ENDBRANCH  79  81
ENDBRANCH  49  79
ENDBRANCH  45  49
ENDBRANCH  44  46
ENDBRANCH   1  44
TORSDOF 35
REMARK  Name = ../refined-set-2016/4a6c/4a6c_pocket.pdb
REMARK  238 active torsions:
REMARK  status: ('A' for Active; 'I' for Inactive)
REMARK    1  A    between atoms: _1  and  _3
REMARK    2  A    between atoms: _3  and  _4
REMARK    3  A    between atoms: _3  and  _6
REMARK    4  A    between atoms: _6  and  _7
REMARK    5  A    between atoms: _7  and  _8
REMARK    6  A    between atoms: _8  and  _9
REMARK    7  A    between atoms: _18  and  _20
REMARK    8  A    between atoms: _20  and  _21
REMARK    9  A    between atoms: _20  and  _23
REMARK   10  A    between atoms: _23  and  _24
REMARK   11  A    between atoms: _27  and  _29
REMARK   12  A    between atoms: _29  and  _30
REMARK   13  A    between atoms: _29  and  _32
REMARK   14  A    between atoms: _32  and  _33
REMARK   15  A    between atoms: _36  and  _38
REMARK   16  A    between atoms: _38  and  _39
REMARK   17  A    between atoms: _38  and  _41
REMARK   18  A    between atoms: _41  and  _42
REMARK   19  A    between atoms: _45  and  _47
REMARK   20  A    between atoms: _47  and  _48
REMARK   21  A    between atoms: _47  and  _50
REMARK   22  A    between atoms: _50  and  _51
REMARK   23  A    between atoms: _54  and  _56
REMARK   24  A    between atoms: _56  and  _57
REMARK   25  A    between atoms: _59  and  _61
REMARK   26  A    between atoms: _61  and  _62
REMARK   27  A    between atoms: _65  and  _67
REMARK   28  A    between atoms: _67  and  _68
REMARK   29  A    between atoms: _67  and  _70
REMARK   30  A    between atoms: _70  and  _71
REMARK   31  A    between atoms: _74  and  _76
REMARK   32  A    between atoms: _76  and  _77
REMARK   33  A    between atoms: _76  and  _79
REMARK   34  A    between atoms: _79  and  _80
REMARK   35  A    between atoms: _83  and  _85
REMARK   36  A    between atoms: _85  and  _86
REMARK   37  A    between atoms: _85  and  _88
REMARK   38  A    between atoms: _88  and  _89
REMARK   39  A    between atoms: _92  and  _94
REMARK   40  A    between atoms: _94  and  _95
REMARK   41  A    between atoms: _94  and  _97
REMARK   42  A    between atoms: _100  and  _102
REMARK   43  A    between atoms: _102  and  _103
REMARK   44  A    between atoms: _102  and  _105
REMARK   45  A    between atoms: _105  and  _106
REMARK   46  A    between atoms: _106  and  _107
REMARK   47  A    between atoms: _107  and  _108
REMARK   48  A    between atoms: _108  and  _109
REMARK   49  A    between atoms: _113  and  _115
REMARK   50  A    between atoms: _115  and  _116
REMARK   51  A    between atoms: _115  and  _118
REMARK   52  A    between atoms: _118  and  _119
REMARK   53  A    between atoms: _119  and  _120
REMARK   54  A    between atoms: _122  and  _124
REMARK   55  A    between atoms: _124  and  _125
REMARK   56  A    between atoms: _124  and  _127
REMARK   57  A    between atoms: _127  and  _128
REMARK   58  A    between atoms: _131  and  _133
REMARK   59  A    between atoms: _133  and  _134
REMARK   60  A    between atoms: _136  and  _138
REMARK   61  A    between atoms: _138  and  _139
REMARK   62  A    between atoms: _141  and  _143
REMARK   63  A    between atoms: _143  and  _144
REMARK   64  A    between atoms: _143  and  _146
REMARK   65  A    between atoms: _146  and  _147
REMARK   66  A    between atoms: _150  and  _152
REMARK   67  A    between atoms: _152  and  _153
REMARK   68  A    between atoms: _155  and  _157
REMARK   69  A    between atoms: _157  and  _158
REMARK   70  A    between atoms: _160  and  _162
REMARK   71  A    between atoms: _162  and  _163
REMARK   72  A    between atoms: _162  and  _165
REMARK   73  A    between atoms: _165  and  _166
REMARK   74  A    between atoms: _172  and  _174
REMARK   75  A    between atoms: _174  and  _175
REMARK   76  A    between atoms: _174  and  _177
REMARK   77  A    between atoms: _177  and  _178
REMARK   78  A    between atoms: _181  and  _183
REMARK   79  A    between atoms: _183  and  _184
REMARK   80  A    between atoms: _183  and  _186
REMARK   81  A    between atoms: _189  and  _191
REMARK   82  A    between atoms: _191  and  _192
REMARK   83  A    between atoms: _191  and  _194
REMARK   84  A    between atoms: _194  and  _195
REMARK   85  A    between atoms: _198  and  _200
REMARK   86  A    between atoms: _200  and  _201
REMARK   87  A    between atoms: _200  and  _203
REMARK   88  A    between atoms: _203  and  _204
REMARK   89  A    between atoms: _208  and  _209
REMARK   90  A    between atoms: _214  and  _216
REMARK   91  A    between atoms: _216  and  _217
REMARK   92  A    between atoms: _216  and  _219
REMARK   93  A    between atoms: _219  and  _220
REMARK   94  A    between atoms: _223  and  _225
REMARK   95  A    between atoms: _225  and  _226
REMARK   96  A    between atoms: _225  and  _228
REMARK   97  A    between atoms: _228  and  _229
REMARK   98  A    between atoms: _234  and  _236
REMARK   99  A    between atoms: _236  and  _237
REMARK  100  A    between atoms: _236  and  _239
REMARK  101  A    between atoms: _242  and  _244
REMARK  102  A    between atoms: _244  and  _245
REMARK  103  A    between atoms: _244  and  _247
REMARK  104  A    between atoms: _247  and  _248
REMARK  105  A    between atoms: _251  and  _253
REMARK  106  A    between atoms: _253  and  _254
REMARK  107  A    between atoms: _256  and  _258
REMARK  108  A    between atoms: _258  and  _259
REMARK  109  A    between atoms: _258  and  _261
REMARK  110  A    between atoms: _261  and  _262
REMARK  111  A    between atoms: _262  and  _263
REMARK  112  A    between atoms: _263  and  _264
REMARK  113  A    between atoms: _273  and  _275
REMARK  114  A    between atoms: _275  and  _276
REMARK  115  A    between atoms: _275  and  _278
REMARK  116  A    between atoms: _278  and  _279
REMARK  117  A    between atoms: _284  and  _286
REMARK  118  A    between atoms: _286  and  _287
REMARK  119  A    between atoms: _286  and  _289
REMARK  120  A    between atoms: _289  and  _290
REMARK  121  A    between atoms: _290  and  _291
REMARK  122  A    between atoms: _291  and  _292
REMARK  123  A    between atoms: _301  and  _303
REMARK  124  A    between atoms: _303  and  _304
REMARK  125  A    between atoms: _303  and  _306
REMARK  126  A    between atoms: _306  and  _307
REMARK  127  A    between atoms: _310  and  _312
REMARK  128  A    between atoms: _312  and  _313
REMARK  129  A    between atoms: _312  and  _315
REMARK  130  A    between atoms: _315  and  _316
REMARK  131  A    between atoms: _319  and  _321
REMARK  132  A    between atoms: _321  and  _322
REMARK  133  A    between atoms: _321  and  _324
REMARK  134  A    between atoms: _324  and  _325
REMARK  135  A    between atoms: _328  and  _330
REMARK  136  A    between atoms: _330  and  _331
REMARK  137  A    between atoms: _330  and  _333
REMARK  138  A    between atoms: _333  and  _334
REMARK  139  A    between atoms: _337  and  _339
REMARK  140  A    between atoms: _339  and  _340
REMARK  141  A    between atoms: _339  and  _342
REMARK  142  A    between atoms: _342  and  _343
REMARK  143  A    between atoms: _346  and  _348
REMARK  144  A    between atoms: _348  and  _349
REMARK  145  A    between atoms: _351  and  _353
REMARK  146  A    between atoms: _353  and  _354
REMARK  147  A    between atoms: _357  and  _359
REMARK  148  A    between atoms: _359  and  _360
REMARK  149  A    between atoms: _359  and  _362
REMARK  150  A    between atoms: _362  and  _363
REMARK  151  A    between atoms: _366  and  _368
REMARK  152  A    between atoms: _368  and  _369
REMARK  153  A    between atoms: _368  and  _371
REMARK  154  A    between atoms: _371  and  _372
REMARK  155  A    between atoms: _375  and  _377
REMARK  156  A    between atoms: _377  and  _378
REMARK  157  A    between atoms: _377  and  _380
REMARK  158  A    between atoms: _380  and  _381
REMARK  159  A    between atoms: _384  and  _386
REMARK  160  A    between atoms: _386  and  _387
REMARK  161  A    between atoms: _386  and  _389
REMARK  162  A    between atoms: _392  and  _394
REMARK  163  A    between atoms: _394  and  _395
REMARK  164  A    between atoms: _394  and  _397
REMARK  165  A    between atoms: _397  and  _398
REMARK  166  A    between atoms: _398  and  _399
REMARK  167  A    between atoms: _402  and  _404
REMARK  168  A    between atoms: _404  and  _405
REMARK  169  A    between atoms: _404  and  _407
REMARK  170  A    between atoms: _407  and  _408
REMARK  171  A    between atoms: _408  and  _409
REMARK  172  A    between atoms: _409  and  _410
REMARK  173  A    between atoms: _410  and  _411
REMARK  174  A    between atoms: _415  and  _417
REMARK  175  A    between atoms: _417  and  _418
REMARK  176  A    between atoms: _417  and  _420
REMARK  177  A    between atoms: _420  and  _421
REMARK  178  A    between atoms: _421  and  _422
REMARK  179  A    between atoms: _424  and  _426
REMARK  180  A    between atoms: _426  and  _427
REMARK  181  A    between atoms: _426  and  _429
REMARK  182  A    between atoms: _429  and  _430
REMARK  183  A    between atoms: _433  and  _435
REMARK  184  A    between atoms: _435  and  _436
REMARK  185  A    between atoms: _438  and  _440
REMARK  186  A    between atoms: _440  and  _441
REMARK  187  A    between atoms: _443  and  _445
REMARK  188  A    between atoms: _445  and  _446
REMARK  189  A    between atoms: _445  and  _448
REMARK  190  A    between atoms: _448  and  _449
REMARK  191  A    between atoms: _452  and  _454
REMARK  192  A    between atoms: _454  and  _455
REMARK  193  A    between atoms: _457  and  _459
REMARK  194  A    between atoms: _459  and  _460
REMARK  195  A    between atoms: _462  and  _464
REMARK  196  A    between atoms: _464  and  _465
REMARK  197  A    between atoms: _464  and  _467
REMARK  198  A    between atoms: _467  and  _468
REMARK  199  A    between atoms: _474  and  _476
REMARK  200  A    between atoms: _476  and  _477
REMARK  201  A    between atoms: _476  and  _479
REMARK  202  A    between atoms: _479  and  _480
REMARK  203  A    between atoms: _483  and  _485
REMARK  204  A    between atoms: _485  and  _486
REMARK  205  A    between atoms: _485  and  _488
REMARK  206  A    between atoms: _491  and  _493
REMARK  207  A    between atoms: _493  and  _494
REMARK  208  A    between atoms: _493  and  _496
REMARK  209  A    between atoms: _496  and  _497
REMARK  210  A    between atoms: _501  and  _502
REMARK  211  A    between atoms: _507  and  _509
REMARK  212  A    between atoms: _509  and  _510
REMARK  213  A    between atoms: _509  and  _512
REMARK  214  A    between atoms: _512  and  _513
REMARK  215  A    between atoms: _517  and  _518
REMARK  216  A    between atoms: _523  and  _525
REMARK  217  A    between atoms: _525  and  _526
REMARK  218  A    between atoms: _525  and  _528
REMARK  219  A    between atoms: _528  and  _529
REMARK  220  A    between atoms: _532  and  _534
REMARK  221  A    between atoms: _534  and  _535
REMARK  222  A    between atoms: _534  and  _537
REMARK  223  A    between atoms: _537  and  _538
REMARK  224  A    between atoms: _543  and  _545
REMARK  225  A    between atoms: _545  and  _546
REMARK  226  A    between atoms: _545  and  _548
REMARK  227  A    between atoms: _551  and  _553
REMARK  228  A    between atoms: _553  and  _554
REMARK  229  A    between atoms: _553  and  _556
REMARK  230  A    between atoms: _556  and  _557
REMARK  231  A    between atoms: _560  and  _562
REMARK  232  A    between atoms: _562  and  _563
REMARK  233  A    between atoms: _565  and  _567
REMARK  234  A    between atoms: _567  and  _568
REMARK  235  A    between atoms: _567  and  _570
REMARK  236  A    between atoms: _570  and  _571
REMARK  237  A    between atoms: _571  and  _572
REMARK  238  A    between atoms: _572  and  _573
REMARK                            x       y       z     vdW  Elec       q    Type
REMARK                         _______ _______ _______ _____ _____    ______ ____
ROOT
ATOM      1  C   GLY A   5       7.961  19.988   6.111  0.00  0.00    +0.243 C 
ATOM      2  O   GLY A   5       6.970  19.255   6.024  0.00  0.00    -0.273 OA
ATOM      3  N   ILE A   6       9.170  19.602   5.725  0.00  0.00    -0.297 N 
ATOM      4  H   ILE A   6       9.968  20.268   5.774  0.00  0.00    +0.150 HD
ENDROOT
BRANCH   3   5
ATOM      5  CA  ILE A   6       9.381  18.258   5.236  0.00  0.00    +0.149 C 
BRANCH   5   6
ATOM      6  C   ILE A   6       9.211  17.347   6.444  0.00  0.00    +0.241 C 
ATOM      7  O   ILE A   6       9.742  17.626   7.520  0.00  0.00    -0.273 OA
ATOM      8  N   GLY A   7       8.442  16.278   6.270  0.00  0.00    -0.295 N 
ATOM      9  H   GLY A   7       7.996  16.107   5.346  0.00  0.00    +0.150 HD
BRANCH   8  10
ATOM     10  CA  GLY A   7       8.221  15.348   7.361  0.00  0.00    +0.176 C 
BRANCH  10  11
ATOM     11  C   GLY A   7       6.914  15.562   8.101  0.00  0.00    +0.243 C 
ATOM     12  O   GLY A   7       6.513  14.715   8.896  0.00  0.00    -0.273 OA
ATOM     13  N   GLY A   8       6.251  16.688   7.850  0.00  0.00    -0.295 N 
ATOM     14  H   GLY A   8       6.638  17.379   7.176  0.00  0.00    +0.150 HD
BRANCH  13  15
ATOM     15  CA  GLY A   8       4.989  16.955   8.515  0.00  0.00    +0.176 C 
BRANCH  15  16
ATOM     16  C   GLY A   8       4.902  18.294   9.216  0.00  0.00    +0.243 C 
ATOM     17  N   PHE A   9       3.822  18.483   9.965  0.00  0.00    -0.297 N 
ATOM     18  H   PHE A   9       3.119  17.720  10.036  0.00  0.00    +0.150 HD
ATOM     19  O   GLY A   8       5.782  19.142   9.086  0.00  0.00    -0.273 OA
BRANCH  17  20
ATOM     20  CA  PHE A   9       3.591  19.725  10.690  0.00  0.00    +0.153 C 
BRANCH  20  21
ATOM     21  C   PHE A   9       4.022  19.648  12.144  0.00  0.00    +0.241 C 
ATOM     22  O   PHE A   9       4.068  18.569  12.741  0.00  0.00    -0.273 OA
ATOM     23  N   ILE A  10       4.348  20.807  12.699  0.00  0.00    -0.298 N 
ATOM     24  H   ILE A  10       4.368  21.662  12.107  0.00  0.00    +0.150 HD
BRANCH  23  25
ATOM     25  CA  ILE A  10       4.679  20.918  14.111  0.00  0.00    +0.137 C 
BRANCH  25  26
ATOM     26  C   ILE A  10       3.934  22.147  14.611  0.00  0.00    +0.227 C 
ATOM     27  O   ILE A  10       3.650  23.075  13.842  0.00  0.00    -0.286 OA
ENDBRANCH  25  26
BRANCH  25  28
ATOM     28  CB  ILE A  10       6.203  21.087  14.412  0.00  0.00    +0.026 C 
ATOM     29  CG2 ILE A  10       6.959  19.865  13.915  0.00  0.00    +0.002 C 
BRANCH  28  30
ATOM     30  CG1 ILE A  10       6.743  22.387  13.821  0.00  0.00    +0.002 C 
ATOM     31  CD1 ILE A  10       8.161  22.741  14.301  0.00  0.00    +0.000 C 
ENDBRANCH  28  30
ENDBRANCH  25  28
ENDBRANCH  23  25
ENDBRANCH  20  21
BRANCH  20  32
ATOM     32  CB  PHE A   9       2.102  20.082  10.683  0.00  0.00    +0.055 C 
BRANCH  32  33
ATOM     33  CG  PHE A   9       1.581  20.523   9.347  0.00  0.00    -0.020 A 
ATOM     34  CD2 PHE A   9       1.309  21.868   9.113  0.00  0.00    -0.004 A 
ATOM     35  CE2 PHE A   9       0.818  22.290   7.888  0.00  0.00    -0.000 A 
ATOM     36  CZ  PHE A   9       0.591  21.359   6.877  0.00  0.00    -0.000 A 
ATOM     37  CE1 PHE A   9       0.860  20.020   7.103  0.00  0.00    -0.000 A 
ATOM     38  CD1 PHE A   9       1.351  19.605   8.328  0.00  0.00    -0.004 A 
ENDBRANCH  32  33
ENDBRANCH  20  32
ENDBRANCH  17  20
ENDBRANCH  15  16
ENDBRANCH  13  15
ENDBRANCH  10  11
ENDBRANCH   8  10
ENDBRANCH   5   6
BRANCH   5  39
ATOM     39  CB  ILE A   6      10.796  18.095   4.655  0.00  0.00    +0.027 C 
ATOM     40  CG2 ILE A   6      11.064  16.639   4.314  0.00  0.00    +0.002 C 
BRANCH  39  41
ATOM     41  CG1 ILE A   6      10.943  18.978   3.416  0.00  0.00    +0.002 C 
ATOM     42  CD1 ILE A   6       9.951  18.658   2.320  0.00  0.00    +0.000 C 
ENDBRANCH  39  41
ENDBRANCH   5  39
ENDBRANCH   3   5
BRANCH   1  43
ATOM     43  CA  GLY A   5       7.845  21.396   6.649  0.00  0.00    +0.176 C 
BRANCH  43  45
ATOM     44  C   GLY A   4       5.607  22.248   6.804  0.00  0.00    +0.243 C 
ATOM     45  N   GLY A   5       6.580  21.531   7.341  0.00  0.00    -0.295 N 
ATOM     46  H   GLY A   5       6.437  21.065   8.259  0.00  0.00    +0.150 HD
ATOM     47  O   GLY A   4       5.720  22.839   5.731  0.00  0.00    -0.273 OA
BRANCH  44  48
ATOM     48  CA  GLY A   4       4.320  22.305   7.595  0.00  0.00    +0.176 C 
BRANCH  48  51
ATOM     49  C   ILE A   3       4.188  23.669   9.581  0.00  0.00    +0.241 C 
ATOM     50  O   ILE A   3       4.552  22.731  10.296  0.00  0.00    -0.273 OA
ATOM     51  N   GLY A   4       4.049  23.560   8.263  0.00  0.00    -0.295 N 
ATOM     52  H   GLY A   4       3.743  24.384   7.707  0.00  0.00    +0.150 HD
BRANCH  49  53
ATOM     53  CA  ILE A   3       3.835  25.024  10.181  0.00  0.00    +0.149 C 
BRANCH  53  55
ATOM     54  C   MET A   2       1.776  25.251  11.407  0.00  0.00    +0.241 C 
ATOM     55  N   ILE A   3       3.017  24.785  11.354  0.00  0.00    -0.297 N 
ATOM     56  H   ILE A   3       3.404  24.247  12.156  0.00  0.00    +0.150 HD
ATOM     57  O   MET A   2       1.287  25.940  10.512  0.00  0.00    -0.273 OA
BRANCH  54  58
ATOM     58  CA  MET A   2       0.971  24.907  12.644  0.00  0.00    +0.149 C 
BRANCH  58  61
ATOM     59  C   LYS A   1       0.604  26.608  14.346  0.00  0.00    +0.238 C 
ATOM     60  O   LYS A   1       1.458  26.134  15.099  0.00  0.00    -0.274 OA
ATOM     61  N   MET A   2       0.302  26.088  13.166  0.00  0.00    -0.297 N 
ATOM     62  H   MET A   2      -0.439  26.540  12.593  0.00  0.00    +0.150 HD
BRANCH  59  63
ATOM     63  CA  LYS A   1      -0.204  27.831  14.747  0.00  0.00    +0.145 C 
BRANCH  63  64
ATOM     64  N   LYS A   1       0.044  28.161  16.140  0.00  0.00    -0.238 NA
ATOM     65  H   LYS A   1       0.905  27.803  16.601  0.00  0.00    +0.142 HD
ENDBRANCH  63  64
BRANCH  63  66
ATOM     66  CB  LYS A   1       0.116  29.014  13.826  0.00  0.00    +0.026 C 
BRANCH  66  67
ATOM     67  CG  LYS A   1       1.582  29.255  13.561  0.00  0.00    -0.000 C 
BRANCH  67  68
ATOM     68  CD  LYS A   1       1.767  30.420  12.608  0.00  0.00    -0.024 C 
BRANCH  68  69
ATOM     69  CE  LYS A   1       3.211  30.546  12.164  0.00  0.00    -0.086 C 
BRANCH  69  70
ATOM     70  NZ  LYS A   1       3.403  31.668  11.202  0.00  0.00    +0.380 N 
ATOM     71  HZ1 LYS A   1       3.122  32.562  11.653  0.00  0.00    -0.089 HD
ATOM     72  HZ2 LYS A   1       4.404  31.718  10.925  0.00  0.00    -0.089 HD
ATOM     73  HZ3 LYS A   1       2.816  31.504  10.359  0.00  0.00    -0.089 HD
ENDBRANCH  69  70
ENDBRANCH  68  69
ENDBRANCH  67  68
ENDBRANCH  66  67
ENDBRANCH  63  66
ENDBRANCH  59  63
ENDBRANCH  58  61
BRANCH  58  74
ATOM     74  CB  MET A   2      -0.058  23.843  12.264  0.00  0.00    +0.041 C 
BRANCH  74  75
ATOM     75  CG  MET A   2      -0.889  23.337  13.413  0.00  0.00    +0.060 C 
BRANCH  75  76
ATOM     76  SD  MET A   2       0.051  22.289  14.513  0.00  0.00    -0.139 S 
ATOM     77  CE  MET A   2      -0.291  20.709  13.810  0.00  0.00    +0.069 C 
ENDBRANCH  75  76
ENDBRANCH  74  75
ENDBRANCH  58  74
ENDBRANCH  54  58
ENDBRANCH  53  55
BRANCH  53  78
ATOM     78  CB  ILE A   3       5.114  25.829  10.510  0.00  0.00    +0.027 C 
ATOM     79  CG2 ILE A   3       4.732  27.226  10.954  0.00  0.00    +0.002 C 
BRANCH  78  80
ATOM     80  CG1 ILE A   3       5.941  25.129  11.585  0.00  0.00    +0.002 C 
ATOM     81  CD1 ILE A   3       7.283  25.809  11.835  0.00  0.00    +0.000 C 
ENDBRANCH  78  80
ENDBRANCH  53  78
ENDBRANCH  49  53
ENDBRANCH  48  51
ENDBRANCH  44  48
ENDBRANCH  43  45
ENDBRANCH   1  43
TORSDOF 36
REMARK  Name = ../refined-set-2016/4a6c/4a6c_pocket.pdb
REMARK  238 active torsions:
REMARK  status: ('A' for Active; 'I' for Inactive)
REMARK    1  A    between atoms: _1  and  _3
REMARK    2  A    between atoms: _3  and  _4
REMARK    3  A    between atoms: _3  and  _6
REMARK    4  A    between atoms: _6  and  _7
REMARK    5  A    between atoms: _7  and  _8
REMARK    6  A    between atoms: _8  and  _9
REMARK    7  A    between atoms: _18  and  _20
REMARK    8  A    between atoms: _20  and  _21
REMARK    9  A    between atoms: _20  and  _23
REMARK   10  A    between atoms: _23  and  _24
REMARK   11  A    between atoms: _27  and  _29
REMARK   12  A    between atoms: _29  and  _30
REMARK   13  A    between atoms: _29  and  _32
REMARK   14  A    between atoms: _32  and  _33
REMARK   15  A    between atoms: _36  and  _38
REMARK   16  A    between atoms: _38  and  _39
REMARK   17  A    between atoms: _38  and  _41
REMARK   18  A    between atoms: _41  and  _42
REMARK   19  A    between atoms: _45  and  _47
REMARK   20  A    between atoms: _47  and  _48
REMARK   21  A    between atoms: _47  and  _50
REMARK   22  A    between atoms: _50  and  _51
REMARK   23  A    between atoms: _54  and  _56
REMARK   24  A    between atoms: _56  and  _57
REMARK   25  A    between atoms: _59  and  _61
REMARK   26  A    between atoms: _61  and  _62
REMARK   27  A    between atoms: _65  and  _67
REMARK   28  A    between atoms: _67  and  _68
REMARK   29  A    between atoms: _67  and  _70
REMARK   30  A    between atoms: _70  and  _71
REMARK   31  A    between atoms: _74  and  _76
REMARK   32  A    between atoms: _76  and  _77
REMARK   33  A    between atoms: _76  and  _79
REMARK   34  A    between atoms: _79  and  _80
REMARK   35  A    between atoms: _83  and  _85
REMARK   36  A    between atoms: _85  and  _86
REMARK   37  A    between atoms: _85  and  _88
REMARK   38  A    between atoms: _88  and  _89
REMARK   39  A    between atoms: _92  and  _94
REMARK   40  A    between atoms: _94  and  _95
REMARK   41  A    between atoms: _94  and  _97
REMARK   42  A    between atoms: _100  and  _102
REMARK   43  A    between atoms: _102  and  _103
REMARK   44  A    between atoms: _102  and  _105
REMARK   45  A    between atoms: _105  and  _106
REMARK   46  A    between atoms: _106  and  _107
REMARK   47  A    between atoms: _107  and  _108
REMARK   48  A    between atoms: _108  and  _109
REMARK   49  A    between atoms: _113  and  _115
REMARK   50  A    between atoms: _115  and  _116
REMARK   51  A    between atoms: _115  and  _118
REMARK   52  A    between atoms: _118  and  _119
REMARK   53  A    between atoms: _119  and  _120
REMARK   54  A    between atoms: _122  and  _124
REMARK   55  A    between atoms: _124  and  _125
REMARK   56  A    between atoms: _124  and  _127
REMARK   57  A    between atoms: _127  and  _128
REMARK   58  A    between atoms: _131  and  _133
REMARK   59  A    between atoms: _133  and  _134
REMARK   60  A    between atoms: _136  and  _138
REMARK   61  A    between atoms: _138  and  _139
REMARK   62  A    between atoms: _141  and  _143
REMARK   63  A    between atoms: _143  and  _144
REMARK   64  A    between atoms: _143  and  _146
REMARK   65  A    between atoms: _146  and  _147
REMARK   66  A    between atoms: _150  and  _152
REMARK   67  A    between atoms: _152  and  _153
REMARK   68  A    between atoms: _155  and  _157
REMARK   69  A    between atoms: _157  and  _158
REMARK   70  A    between atoms: _160  and  _162
REMARK   71  A    between atoms: _162  and  _163
REMARK   72  A    between atoms: _162  and  _165
REMARK   73  A    between atoms: _165  and  _166
REMARK   74  A    between atoms: _172  and  _174
REMARK   75  A    between atoms: _174  and  _175
REMARK   76  A    between atoms: _174  and  _177
REMARK   77  A    between atoms: _177  and  _178
REMARK   78  A    between atoms: _181  and  _183
REMARK   79  A    between atoms: _183  and  _184
REMARK   80  A    between atoms: _183  and  _186
REMARK   81  A    between atoms: _189  and  _191
REMARK   82  A    between atoms: _191  and  _192
REMARK   83  A    between atoms: _191  and  _194
REMARK   84  A    between atoms: _194  and  _195
REMARK   85  A    between atoms: _198  and  _200
REMARK   86  A    between atoms: _200  and  _201
REMARK   87  A    between atoms: _200  and  _203
REMARK   88  A    between atoms: _203  and  _204
REMARK   89  A    between atoms: _208  and  _209
REMARK   90  A    between atoms: _214  and  _216
REMARK   91  A    between atoms: _216  and  _217
REMARK   92  A    between atoms: _216  and  _219
REMARK   93  A    between atoms: _219  and  _220
REMARK   94  A    between atoms: _223  and  _225
REMARK   95  A    between atoms: _225  and  _226
REMARK   96  A    between atoms: _225  and  _228
REMARK   97  A    between atoms: _228  and  _229
REMARK   98  A    between atoms: _234  and  _236
REMARK   99  A    between atoms: _236  and  _237
REMARK  100  A    between atoms: _236  and  _239
REMARK  101  A    between atoms: _242  and  _244
REMARK  102  A    between atoms: _244  and  _245
REMARK  103  A    between atoms: _244  and  _247
REMARK  104  A    between atoms: _247  and  _248
REMARK  105  A    between atoms: _251  and  _253
REMARK  106  A    between atoms: _253  and  _254
REMARK  107  A    between atoms: _256  and  _258
REMARK  108  A    between atoms: _258  and  _259
REMARK  109  A    between atoms: _258  and  _261
REMARK  110  A    between atoms: _261  and  _262
REMARK  111  A    between atoms: _262  and  _263
REMARK  112  A    between atoms: _263  and  _264
REMARK  113  A    between atoms: _273  and  _275
REMARK  114  A    between atoms: _275  and  _276
REMARK  115  A    between atoms: _275  and  _278
REMARK  116  A    between atoms: _278  and  _279
REMARK  117  A    between atoms: _284  and  _286
REMARK  118  A    between atoms: _286  and  _287
REMARK  119  A    between atoms: _286  and  _289
REMARK  120  A    between atoms: _289  and  _290
REMARK  121  A    between atoms: _290  and  _291
REMARK  122  A    between atoms: _291  and  _292
REMARK  123  A    between atoms: _301  and  _303
REMARK  124  A    between atoms: _303  and  _304
REMARK  125  A    between atoms: _303  and  _306
REMARK  126  A    between atoms: _306  and  _307
REMARK  127  A    between atoms: _310  and  _312
REMARK  128  A    between atoms: _312  and  _313
REMARK  129  A    between atoms: _312  and  _315
REMARK  130  A    between atoms: _315  and  _316
REMARK  131  A    between atoms: _319  and  _321
REMARK  132  A    between atoms: _321  and  _322
REMARK  133  A    between atoms: _321  and  _324
REMARK  134  A    between atoms: _324  and  _325
REMARK  135  A    between atoms: _328  and  _330
REMARK  136  A    between atoms: _330  and  _331
REMARK  137  A    between atoms: _330  and  _333
REMARK  138  A    between atoms: _333  and  _334
REMARK  139  A    between atoms: _337  and  _339
REMARK  140  A    between atoms: _339  and  _340
REMARK  141  A    between atoms: _339  and  _342
REMARK  142  A    between atoms: _342  and  _343
REMARK  143  A    between atoms: _346  and  _348
REMARK  144  A    between atoms: _348  and  _349
REMARK  145  A    between atoms: _351  and  _353
REMARK  146  A    between atoms: _353  and  _354
REMARK  147  A    between atoms: _357  and  _359
REMARK  148  A    between atoms: _359  and  _360
REMARK  149  A    between atoms: _359  and  _362
REMARK  150  A    between atoms: _362  and  _363
REMARK  151  A    between atoms: _366  and  _368
REMARK  152  A    between atoms: _368  and  _369
REMARK  153  A    between atoms: _368  and  _371
REMARK  154  A    between atoms: _371  and  _372
REMARK  155  A    between atoms: _375  and  _377
REMARK  156  A    between atoms: _377  and  _378
REMARK  157  A    between atoms: _377  and  _380
REMARK  158  A    between atoms: _380  and  _381
REMARK  159  A    between atoms: _384  and  _386
REMARK  160  A    between atoms: _386  and  _387
REMARK  161  A    between atoms: _386  and  _389
REMARK  162  A    between atoms: _392  and  _394
REMARK  163  A    between atoms: _394  and  _395
REMARK  164  A    between atoms: _394  and  _397
REMARK  165  A    between atoms: _397  and  _398
REMARK  166  A    between atoms: _398  and  _399
REMARK  167  A    between atoms: _402  and  _404
REMARK  168  A    between atoms: _404  and  _405
REMARK  169  A    between atoms: _404  and  _407
REMARK  170  A    between atoms: _407  and  _408
REMARK  171  A    between atoms: _408  and  _409
REMARK  172  A    between atoms: _409  and  _410
REMARK  173  A    between atoms: _410  and  _411
REMARK  174  A    between atoms: _415  and  _417
REMARK  175  A    between atoms: _417  and  _418
REMARK  176  A    between atoms: _417  and  _420
REMARK  177  A    between atoms: _420  and  _421
REMARK  178  A    between atoms: _421  and  _422
REMARK  179  A    between atoms: _424  and  _426
REMARK  180  A    between atoms: _426  and  _427
REMARK  181  A    between atoms: _426  and  _429
REMARK  182  A    between atoms: _429  and  _430
REMARK  183  A    between atoms: _433  and  _435
REMARK  184  A    between atoms: _435  and  _436
REMARK  185  A    between atoms: _438  and  _440
REMARK  186  A    between atoms: _440  and  _441
REMARK  187  A    between atoms: _443  and  _445
REMARK  188  A    between atoms: _445  and  _446
REMARK  189  A    between atoms: _445  and  _448
REMARK  190  A    between atoms: _448  and  _449
REMARK  191  A    between atoms: _452  and  _454
REMARK  192  A    between atoms: _454  and  _455
REMARK  193  A    between atoms: _457  and  _459
REMARK  194  A    between atoms: _459  and  _460
REMARK  195  A    between atoms: _462  and  _464
REMARK  196  A    between atoms: _464  and  _465
REMARK  197  A    between atoms: _464  and  _467
REMARK  198  A    between atoms: _467  and  _468
REMARK  199  A    between atoms: _474  and  _476
REMARK  200  A    between atoms: _476  and  _477
REMARK  201  A    between atoms: _476  and  _479
REMARK  202  A    between atoms: _479  and  _480
REMARK  203  A    between atoms: _483  and  _485
REMARK  204  A    between atoms: _485  and  _486
REMARK  205  A    between atoms: _485  and  _488
REMARK  206  A    between atoms: _491  and  _493
REMARK  207  A    between atoms: _493  and  _494
REMARK  208  A    between atoms: _493  and  _496
REMARK  209  A    between atoms: _496  and  _497
REMARK  210  A    between atoms: _501  and  _502
REMARK  211  A    between atoms: _507  and  _509
REMARK  212  A    between atoms: _509  and  _510
REMARK  213  A    between atoms: _509  and  _512
REMARK  214  A    between atoms: _512  and  _513
REMARK  215  A    between atoms: _517  and  _518
REMARK  216  A    between atoms: _523  and  _525
REMARK  217  A    between atoms: _525  and  _526
REMARK  218  A    between atoms: _525  and  _528
REMARK  219  A    between atoms: _528  and  _529
REMARK  220  A    between atoms: _532  and  _534
REMARK  221  A    between atoms: _534  and  _535
REMARK  222  A    between atoms: _534  and  _537
REMARK  223  A    between atoms: _537  and  _538
REMARK  224  A    between atoms: _543  and  _545
REMARK  225  A    between atoms: _545  and  _546
REMARK  226  A    between atoms: _545  and  _548
REMARK  227  A    between atoms: _551  and  _553
REMARK  228  A    between atoms: _553  and  _554
REMARK  229  A    between atoms: _553  and  _556
REMARK  230  A    between atoms: _556  and  _557
REMARK  231  A    between atoms: _560  and  _562
REMARK  232  A    between atoms: _562  and  _563
REMARK  233  A    between atoms: _565  and  _567
REMARK  234  A    between atoms: _567  and  _568
REMARK  235  A    between atoms: _567  and  _570
REMARK  236  A    between atoms: _570  and  _571
REMARK  237  A    between atoms: _571  and  _572
REMARK  238  A    between atoms: _572  and  _573
REMARK                            x       y       z     vdW  Elec       q    Type
REMARK                         _______ _______ _______ _____ _____    ______ ____
ROOT
ATOM      1  CA  VAL A   1       4.612  26.517  17.401  0.00  0.00    +0.133 C 
ENDROOT
BRANCH   1   2
ATOM      2  CB  VAL A   1       5.542  27.060  16.288  0.00  0.00    +0.023 C 
ATOM      3  CG2 VAL A   1       6.441  25.948  15.771  0.00  0.00    +0.002 C 
ATOM      4  CG1 VAL A   1       4.713  27.638  15.150  0.00  0.00    +0.002 C 
ENDBRANCH   1   2
BRANCH   1   5
ATOM      5  N   VAL A   1       3.709  25.498  16.887  0.00  0.00    -0.239 NA
ATOM      6  H   VAL A   1       2.882  25.790  16.327  0.00  0.00    +0.142 HD
ENDBRANCH   1   5
BRANCH   1   7
ATOM      7  C   VAL A   1       3.851  27.691  17.998  0.00  0.00    +0.224 C 
ATOM      8  O   VAL A   1       2.647  27.846  17.780  0.00  0.00    -0.287 OA
ENDBRANCH   1   7
TORSDOF 3
REMARK  Name = ../refined-set-2016/4a6c/4a6c_pocket.pdb
REMARK  238 active torsions:
REMARK  status: ('A' for Active; 'I' for Inactive)
REMARK    1  A    between atoms: _1  and  _3
REMARK    2  A    between atoms: _3  and  _4
REMARK    3  A    between atoms: _3  and  _6
REMARK    4  A    between atoms: _6  and  _7
REMARK    5  A    between atoms: _7  and  _8
REMARK    6  A    between atoms: _8  and  _9
REMARK    7  A    between atoms: _18  and  _20
REMARK    8  A    between atoms: _20  and  _21
REMARK    9  A    between atoms: _20  and  _23
REMARK   10  A    between atoms: _23  and  _24
REMARK   11  A    between atoms: _27  and  _29
REMARK   12  A    between atoms: _29  and  _30
REMARK   13  A    between atoms: _29  and  _32
REMARK   14  A    between atoms: _32  and  _33
REMARK   15  A    between atoms: _36  and  _38
REMARK   16  A    between atoms: _38  and  _39
REMARK   17  A    between atoms: _38  and  _41
REMARK   18  A    between atoms: _41  and  _42
REMARK   19  A    between atoms: _45  and  _47
REMARK   20  A    between atoms: _47  and  _48
REMARK   21  A    between atoms: _47  and  _50
REMARK   22  A    between atoms: _50  and  _51
REMARK   23  A    between atoms: _54  and  _56
REMARK   24  A    between atoms: _56  and  _57
REMARK   25  A    between atoms: _59  and  _61
REMARK   26  A    between atoms: _61  and  _62
REMARK   27  A    between atoms: _65  and  _67
REMARK   28  A    between atoms: _67  and  _68
REMARK   29  A    between atoms: _67  and  _70
REMARK   30  A    between atoms: _70  and  _71
REMARK   31  A    between atoms: _74  and  _76
REMARK   32  A    between atoms: _76  and  _77
REMARK   33  A    between atoms: _76  and  _79
REMARK   34  A    between atoms: _79  and  _80
REMARK   35  A    between atoms: _83  and  _85
REMARK   36  A    between atoms: _85  and  _86
REMARK   37  A    between atoms: _85  and  _88
REMARK   38  A    between atoms: _88  and  _89
REMARK   39  A    between atoms: _92  and  _94
REMARK   40  A    between atoms: _94  and  _95
REMARK   41  A    between atoms: _94  and  _97
REMARK   42  A    between atoms: _100  and  _102
REMARK   43  A    between atoms: _102  and  _103
REMARK   44  A    between atoms: _102  and  _105
REMARK   45  A    between atoms: _105  and  _106
REMARK   46  A    between atoms: _106  and  _107
REMARK   47  A    between atoms: _107  and  _108
REMARK   48  A    between atoms: _108  and  _109
REMARK   49  A    between atoms: _113  and  _115
REMARK   50  A    between atoms: _115  and  _116
REMARK   51  A    between atoms: _115  and  _118
REMARK   52  A    between atoms: _118  and  _119
REMARK   53  A    between atoms: _119  and  _120
REMARK   54  A    between atoms: _122  and  _124
REMARK   55  A    between atoms: _124  and  _125
REMARK   56  A    between atoms: _124  and  _127
REMARK   57  A    between atoms: _127  and  _128
REMARK   58  A    between atoms: _131  and  _133
REMARK   59  A    between atoms: _133  and  _134
REMARK   60  A    between atoms: _136  and  _138
REMARK   61  A    between atoms: _138  and  _139
REMARK   62  A    between atoms: _141  and  _143
REMARK   63  A    between atoms: _143  and  _144
REMARK   64  A    between atoms: _143  and  _146
REMARK   65  A    between atoms: _146  and  _147
REMARK   66  A    between atoms: _150  and  _152
REMARK   67  A    between atoms: _152  and  _153
REMARK   68  A    between atoms: _155  and  _157
REMARK   69  A    between atoms: _157  and  _158
REMARK   70  A    between atoms: _160  and  _162
REMARK   71  A    between atoms: _162  and  _163
REMARK   72  A    between atoms: _162  and  _165
REMARK   73  A    between atoms: _165  and  _166
REMARK   74  A    between atoms: _172  and  _174
REMARK   75  A    between atoms: _174  and  _175
REMARK   76  A    between atoms: _174  and  _177
REMARK   77  A    between atoms: _177  and  _178
REMARK   78  A    between atoms: _181  and  _183
REMARK   79  A    between atoms: _183  and  _184
REMARK   80  A    between atoms: _183  and  _186
REMARK   81  A    between atoms: _189  and  _191
REMARK   82  A    between atoms: _191  and  _192
REMARK   83  A    between atoms: _191  and  _194
REMARK   84  A    between atoms: _194  and  _195
REMARK   85  A    between atoms: _198  and  _200
REMARK   86  A    between atoms: _200  and  _201
REMARK   87  A    between atoms: _200  and  _203
REMARK   88  A    between atoms: _203  and  _204
REMARK   89  A    between atoms: _208  and  _209
REMARK   90  A    between atoms: _214  and  _216
REMARK   91  A    between atoms: _216  and  _217
REMARK   92  A    between atoms: _216  and  _219
REMARK   93  A    between atoms: _219  and  _220
REMARK   94  A    between atoms: _223  and  _225
REMARK   95  A    between atoms: _225  and  _226
REMARK   96  A    between atoms: _225  and  _228
REMARK   97  A    between atoms: _228  and  _229
REMARK   98  A    between atoms: _234  and  _236
REMARK   99  A    between atoms: _236  and  _237
REMARK  100  A    between atoms: _236  and  _239
REMARK  101  A    between atoms: _242  and  _244
REMARK  102  A    between atoms: _244  and  _245
REMARK  103  A    between atoms: _244  and  _247
REMARK  104  A    between atoms: _247  and  _248
REMARK  105  A    between atoms: _251  and  _253
REMARK  106  A    between atoms: _253  and  _254
REMARK  107  A    between atoms: _256  and  _258
REMARK  108  A    between atoms: _258  and  _259
REMARK  109  A    between atoms: _258  and  _261
REMARK  110  A    between atoms: _261  and  _262
REMARK  111  A    between atoms: _262  and  _263
REMARK  112  A    between atoms: _263  and  _264
REMARK  113  A    between atoms: _273  and  _275
REMARK  114  A    between atoms: _275  and  _276
REMARK  115  A    between atoms: _275  and  _278
REMARK  116  A    between atoms: _278  and  _279
REMARK  117  A    between atoms: _284  and  _286
REMARK  118  A    between atoms: _286  and  _287
REMARK  119  A    between atoms: _286  and  _289
REMARK  120  A    between atoms: _289  and  _290
REMARK  121  A    between atoms: _290  and  _291
REMARK  122  A    between atoms: _291  and  _292
REMARK  123  A    between atoms: _301  and  _303
REMARK  124  A    between atoms: _303  and  _304
REMARK  125  A    between atoms: _303  and  _306
REMARK  126  A    between atoms: _306  and  _307
REMARK  127  A    between atoms: _310  and  _312
REMARK  128  A    between atoms: _312  and  _313
REMARK  129  A    between atoms: _312  and  _315
REMARK  130  A    between atoms: _315  and  _316
REMARK  131  A    between atoms: _319  and  _321
REMARK  132  A    between atoms: _321  and  _322
REMARK  133  A    between atoms: _321  and  _324
REMARK  134  A    between atoms: _324  and  _325
REMARK  135  A    between atoms: _328  and  _330
REMARK  136  A    between atoms: _330  and  _331
REMARK  137  A    between atoms: _330  and  _333
REMARK  138  A    between atoms: _333  and  _334
REMARK  139  A    between atoms: _337  and  _339
REMARK  140  A    between atoms: _339  and  _340
REMARK  141  A    between atoms: _339  and  _342
REMARK  142  A    between atoms: _342  and  _343
REMARK  143  A    between atoms: _346  and  _348
REMARK  144  A    between atoms: _348  and  _349
REMARK  145  A    between atoms: _351  and  _353
REMARK  146  A    between atoms: _353  and  _354
REMARK  147  A    between atoms: _357  and  _359
REMARK  148  A    between atoms: _359  and  _360
REMARK  149  A    between atoms: _359  and  _362
REMARK  150  A    between atoms: _362  and  _363
REMARK  151  A    between atoms: _366  and  _368
REMARK  152  A    between atoms: _368  and  _369
REMARK  153  A    between atoms: _368  and  _371
REMARK  154  A    between atoms: _371  and  _372
REMARK  155  A    between atoms: _375  and  _377
REMARK  156  A    between atoms: _377  and  _378
REMARK  157  A    between atoms: _377  and  _380
REMARK  158  A    between atoms: _380  and  _381
REMARK  159  A    between atoms: _384  and  _386
REMARK  160  A    between atoms: _386  and  _387
REMARK  161  A    between atoms: _386  and  _389
REMARK  162  A    between atoms: _392  and  _394
REMARK  163  A    between atoms: _394  and  _395
REMARK  164  A    between atoms: _394  and  _397
REMARK  165  A    between atoms: _397  and  _398
REMARK  166  A    between atoms: _398  and  _399
REMARK  167  A    between atoms: _402  and  _404
REMARK  168  A    between atoms: _404  and  _405
REMARK  169  A    between atoms: _404  and  _407
REMARK  170  A    between atoms: _407  and  _408
REMARK  171  A    between atoms: _408  and  _409
REMARK  172  A    between atoms: _409  and  _410
REMARK  173  A    between atoms: _410  and  _411
REMARK  174  A    between atoms: _415  and  _417
REMARK  175  A    between atoms: _417  and  _418
REMARK  176  A    between atoms: _417  and  _420
REMARK  177  A    between atoms: _420  and  _421
REMARK  178  A    between atoms: _421  and  _422
REMARK  179  A    between atoms: _424  and  _426
REMARK  180  A    between atoms: _426  and  _427
REMARK  181  A    between atoms: _426  and  _429
REMARK  182  A    between atoms: _429  and  _430
REMARK  183  A    between atoms: _433  and  _435
REMARK  184  A    between atoms: _435  and  _436
REMARK  185  A    between atoms: _438  and  _440
REMARK  186  A    between atoms: _440  and  _441
REMARK  187  A    between atoms: _443  and  _445
REMARK  188  A    between atoms: _445  and  _446
REMARK  189  A    between atoms: _445  and  _448
REMARK  190  A    between atoms: _448  and  _449
REMARK  191  A    between atoms: _452  and  _454
REMARK  192  A    between atoms: _454  and  _455
REMARK  193  A    between atoms: _457  and  _459
REMARK  194  A    between atoms: _459  and  _460
REMARK  195  A    between atoms: _462  and  _464
REMARK  196  A    between atoms: _464  and  _465
REMARK  197  A    between atoms: _464  and  _467
REMARK  198  A    between atoms: _467  and  _468
REMARK  199  A    between atoms: _474  and  _476
REMARK  200  A    between atoms: _476  and  _477
REMARK  201  A    between atoms: _476  and  _479
REMARK  202  A    between atoms: _479  and  _480
REMARK  203  A    between atoms: _483  and  _485
REMARK  204  A    between atoms: _485  and  _486
REMARK  205  A    between atoms: _485  and  _488
REMARK  206  A    between atoms: _491  and  _493
REMARK  207  A    between atoms: _493  and  _494
REMARK  208  A    between atoms: _493  and  _496
REMARK  209  A    between atoms: _496  and  _497
REMARK  210  A    between atoms: _501  and  _502
REMARK  211  A    between atoms: _507  and  _509
REMARK  212  A    between atoms: _509  and  _510
REMARK  213  A    between atoms: _509  and  _512
REMARK  214  A    between atoms: _512  and  _513
REMARK  215  A    between atoms: _517  and  _518
REMARK  216  A    between atoms: _523  and  _525
REMARK  217  A    between atoms: _525  and  _526
REMARK  218  A    between atoms: _525  and  _528
REMARK  219  A    between atoms: _528  and  _529
REMARK  220  A    between atoms: _532  and  _534
REMARK  221  A    between atoms: _534  and  _535
REMARK  222  A    between atoms: _534  and  _537
REMARK  223  A    between atoms: _537  and  _538
REMARK  224  A    between atoms: _543  and  _545
REMARK  225  A    between atoms: _545  and  _546
REMARK  226  A    between atoms: _545  and  _548
REMARK  227  A    between atoms: _551  and  _553
REMARK  228  A    between atoms: _553  and  _554
REMARK  229  A    between atoms: _553  and  _556
REMARK  230  A    between atoms: _556  and  _557
REMARK  231  A    between atoms: _560  and  _562
REMARK  232  A    between atoms: _562  and  _563
REMARK  233  A    between atoms: _565  and  _567
REMARK  234  A    between atoms: _567  and  _568
REMARK  235  A    between atoms: _567  and  _570
REMARK  236  A    between atoms: _570  and  _571
REMARK  237  A    between atoms: _571  and  _572
REMARK  238  A    between atoms: _572  and  _573
REMARK                            x       y       z     vdW  Elec       q    Type
REMARK                         _______ _______ _______ _____ _____    ______ ____
ROOT
ATOM      1  CA  LEU A   1       8.098  30.858  16.118  0.00  0.00    +0.133 C 
ENDROOT
BRANCH   1   2
ATOM      2  N   LEU A   1       8.982  31.997  15.900  0.00  0.00    -0.239 NA
ATOM      3  H   LEU A   1       9.759  31.905  15.215  0.00  0.00    +0.142 HD
ENDBRANCH   1   2
BRANCH   1   4
ATOM      4  C   LEU A   1       8.876  29.913  17.014  0.00  0.00    +0.224 C 
ATOM      5  O   LEU A   1       9.972  29.482  16.656  0.00  0.00    -0.287 OA
ENDBRANCH   1   4
BRANCH   1   6
ATOM      6  CB  LEU A   1       7.767  30.161  14.796  0.00  0.00    +0.025 C 
BRANCH   6   7
ATOM      7  CG  LEU A   1       7.212  31.074  13.694  0.00  0.00    +0.002 C 
ATOM      8  CD2 LEU A   1       5.964  31.802  14.194  0.00  0.00    +0.000 C 
ATOM      9  CD1 LEU A   1       6.882  30.252  12.458  0.00  0.00    +0.000 C 
ENDBRANCH   6   7
ENDBRANCH   1   6
TORSDOF 4
REMARK  Name = ../refined-set-2016/4a6c/4a6c_pocket.pdb
REMARK  238 active torsions:
REMARK  status: ('A' for Active; 'I' for Inactive)
REMARK    1  A    between atoms: _1  and  _3
REMARK    2  A    between atoms: _3  and  _4
REMARK    3  A    between atoms: _3  and  _6
REMARK    4  A    between atoms: _6  and  _7
REMARK    5  A    between atoms: _7  and  _8
REMARK    6  A    between atoms: _8  and  _9
REMARK    7  A    between atoms: _18  and  _20
REMARK    8  A    between atoms: _20  and  _21
REMARK    9  A    between atoms: _20  and  _23
REMARK   10  A    between atoms: _23  and  _24
REMARK   11  A    between atoms: _27  and  _29
REMARK   12  A    between atoms: _29  and  _30
REMARK   13  A    between atoms: _29  and  _32
REMARK   14  A    between atoms: _32  and  _33
REMARK   15  A    between atoms: _36  and  _38
REMARK   16  A    between atoms: _38  and  _39
REMARK   17  A    between atoms: _38  and  _41
REMARK   18  A    between atoms: _41  and  _42
REMARK   19  A    between atoms: _45  and  _47
REMARK   20  A    between atoms: _47  and  _48
REMARK   21  A    between atoms: _47  and  _50
REMARK   22  A    between atoms: _50  and  _51
REMARK   23  A    between atoms: _54  and  _56
REMARK   24  A    between atoms: _56  and  _57
REMARK   25  A    between atoms: _59  and  _61
REMARK   26  A    between atoms: _61  and  _62
REMARK   27  A    between atoms: _65  and  _67
REMARK   28  A    between atoms: _67  and  _68
REMARK   29  A    between atoms: _67  and  _70
REMARK   30  A    between atoms: _70  and  _71
REMARK   31  A    between atoms: _74  and  _76
REMARK   32  A    between atoms: _76  and  _77
REMARK   33  A    between atoms: _76  and  _79
REMARK   34  A    between atoms: _79  and  _80
REMARK   35  A    between atoms: _83  and  _85
REMARK   36  A    between atoms: _85  and  _86
REMARK   37  A    between atoms: _85  and  _88
REMARK   38  A    between atoms: _88  and  _89
REMARK   39  A    between atoms: _92  and  _94
REMARK   40  A    between atoms: _94  and  _95
REMARK   41  A    between atoms: _94  and  _97
REMARK   42  A    between atoms: _100  and  _102
REMARK   43  A    between atoms: _102  and  _103
REMARK   44  A    between atoms: _102  and  _105
REMARK   45  A    between atoms: _105  and  _106
REMARK   46  A    between atoms: _106  and  _107
REMARK   47  A    between atoms: _107  and  _108
REMARK   48  A    between atoms: _108  and  _109
REMARK   49  A    between atoms: _113  and  _115
REMARK   50  A    between atoms: _115  and  _116
REMARK   51  A    between atoms: _115  and  _118
REMARK   52  A    between atoms: _118  and  _119
REMARK   53  A    between atoms: _119  and  _120
REMARK   54  A    between atoms: _122  and  _124
REMARK   55  A    between atoms: _124  and  _125
REMARK   56  A    between atoms: _124  and  _127
REMARK   57  A    between atoms: _127  and  _128
REMARK   58  A    between atoms: _131  and  _133
REMARK   59  A    between atoms: _133  and  _134
REMARK   60  A    between atoms: _136  and  _138
REMARK   61  A    between atoms: _138  and  _139
REMARK   62  A    between atoms: _141  and  _143
REMARK   63  A    between atoms: _143  and  _144
REMARK   64  A    between atoms: _143  and  _146
REMARK   65  A    between atoms: _146  and  _147
REMARK   66  A    between atoms: _150  and  _152
REMARK   67  A    between atoms: _152  and  _153
REMARK   68  A    between atoms: _155  and  _157
REMARK   69  A    between atoms: _157  and  _158
REMARK   70  A    between atoms: _160  and  _162
REMARK   71  A    between atoms: _162  and  _163
REMARK   72  A    between atoms: _162  and  _165
REMARK   73  A    between atoms: _165  and  _166
REMARK   74  A    between atoms: _172  and  _174
REMARK   75  A    between atoms: _174  and  _175
REMARK   76  A    between atoms: _174  and  _177
REMARK   77  A    between atoms: _177  and  _178
REMARK   78  A    between atoms: _181  and  _183
REMARK   79  A    between atoms: _183  and  _184
REMARK   80  A    between atoms: _183  and  _186
REMARK   81  A    between atoms: _189  and  _191
REMARK   82  A    between atoms: _191  and  _192
REMARK   83  A    between atoms: _191  and  _194
REMARK   84  A    between atoms: _194  and  _195
REMARK   85  A    between atoms: _198  and  _200
REMARK   86  A    between atoms: _200  and  _201
REMARK   87  A    between atoms: _200  and  _203
REMARK   88  A    between atoms: _203  and  _204
REMARK   89  A    between atoms: _208  and  _209
REMARK   90  A    between atoms: _214  and  _216
REMARK   91  A    between atoms: _216  and  _217
REMARK   92  A    between atoms: _216  and  _219
REMARK   93  A    between atoms: _219  and  _220
REMARK   94  A    between atoms: _223  and  _225
REMARK   95  A    between atoms: _225  and  _226
REMARK   96  A    between atoms: _225  and  _228
REMARK   97  A    between atoms: _228  and  _229
REMARK   98  A    between atoms: _234  and  _236
REMARK   99  A    between atoms: _236  and  _237
REMARK  100  A    between atoms: _236  and  _239
REMARK  101  A    between atoms: _242  and  _244
REMARK  102  A    between atoms: _244  and  _245
REMARK  103  A    between atoms: _244  and  _247
REMARK  104  A    between atoms: _247  and  _248
REMARK  105  A    between atoms: _251  and  _253
REMARK  106  A    between atoms: _253  and  _254
REMARK  107  A    between atoms: _256  and  _258
REMARK  108  A    between atoms: _258  and  _259
REMARK  109  A    between atoms: _258  and  _261
REMARK  110  A    between atoms: _261  and  _262
REMARK  111  A    between atoms: _262  and  _263
REMARK  112  A    between atoms: _263  and  _264
REMARK  113  A    between atoms: _273  and  _275
REMARK  114  A    between atoms: _275  and  _276
REMARK  115  A    between atoms: _275  and  _278
REMARK  116  A    between atoms: _278  and  _279
REMARK  117  A    between atoms: _284  and  _286
REMARK  118  A    between atoms: _286  and  _287
REMARK  119  A    between atoms: _286  and  _289
REMARK  120  A    between atoms: _289  and  _290
REMARK  121  A    between atoms: _290  and  _291
REMARK  122  A    between atoms: _291  and  _292
REMARK  123  A    between atoms: _301  and  _303
REMARK  124  A    between atoms: _303  and  _304
REMARK  125  A    between atoms: _303  and  _306
REMARK  126  A    between atoms: _306  and  _307
REMARK  127  A    between atoms: _310  and  _312
REMARK  128  A    between atoms: _312  and  _313
REMARK  129  A    between atoms: _312  and  _315
REMARK  130  A    between atoms: _315  and  _316
REMARK  131  A    between atoms: _319  and  _321
REMARK  132  A    between atoms: _321  and  _322
REMARK  133  A    between atoms: _321  and  _324
REMARK  134  A    between atoms: _324  and  _325
REMARK  135  A    between atoms: _328  and  _330
REMARK  136  A    between atoms: _330  and  _331
REMARK  137  A    between atoms: _330  and  _333
REMARK  138  A    between atoms: _333  and  _334
REMARK  139  A    between atoms: _337  and  _339
REMARK  140  A    between atoms: _339  and  _340
REMARK  141  A    between atoms: _339  and  _342
REMARK  142  A    between atoms: _342  and  _343
REMARK  143  A    between atoms: _346  and  _348
REMARK  144  A    between atoms: _348  and  _349
REMARK  145  A    between atoms: _351  and  _353
REMARK  146  A    between atoms: _353  and  _354
REMARK  147  A    between atoms: _357  and  _359
REMARK  148  A    between atoms: _359  and  _360
REMARK  149  A    between atoms: _359  and  _362
REMARK  150  A    between atoms: _362  and  _363
REMARK  151  A    between atoms: _366  and  _368
REMARK  152  A    between atoms: _368  and  _369
REMARK  153  A    between atoms: _368  and  _371
REMARK  154  A    between atoms: _371  and  _372
REMARK  155  A    between atoms: _375  and  _377
REMARK  156  A    between atoms: _377  and  _378
REMARK  157  A    between atoms: _377  and  _380
REMARK  158  A    between atoms: _380  and  _381
REMARK  159  A    between atoms: _384  and  _386
REMARK  160  A    between atoms: _386  and  _387
REMARK  161  A    between atoms: _386  and  _389
REMARK  162  A    between atoms: _392  and  _394
REMARK  163  A    between atoms: _394  and  _395
REMARK  164  A    between atoms: _394  and  _397
REMARK  165  A    between atoms: _397  and  _398
REMARK  166  A    between atoms: _398  and  _399
REMARK  167  A    between atoms: _402  and  _404
REMARK  168  A    between atoms: _404  and  _405
REMARK  169  A    between atoms: _404  and  _407
REMARK  170  A    between atoms: _407  and  _408
REMARK  171  A    between atoms: _408  and  _409
REMARK  172  A    between atoms: _409  and  _410
REMARK  173  A    between atoms: _410  and  _411
REMARK  174  A    between atoms: _415  and  _417
REMARK  175  A    between atoms: _417  and  _418
REMARK  176  A    between atoms: _417  and  _420
REMARK  177  A    between atoms: _420  and  _421
REMARK  178  A    between atoms: _421  and  _422
REMARK  179  A    between atoms: _424  and  _426
REMARK  180  A    between atoms: _426  and  _427
REMARK  181  A    between atoms: _426  and  _429
REMARK  182  A    between atoms: _429  and  _430
REMARK  183  A    between atoms: _433  and  _435
REMARK  184  A    between atoms: _435  and  _436
REMARK  185  A    between atoms: _438  and  _440
REMARK  186  A    between atoms: _440  and  _441
REMARK  187  A    between atoms: _443  and  _445
REMARK  188  A    between atoms: _445  and  _446
REMARK  189  A    between atoms: _445  and  _448
REMARK  190  A    between atoms: _448  and  _449
REMARK  191  A    between atoms: _452  and  _454
REMARK  192  A    between atoms: _454  and  _455
REMARK  193  A    between atoms: _457  and  _459
REMARK  194  A    between atoms: _459  and  _460
REMARK  195  A    between atoms: _462  and  _464
REMARK  196  A    between atoms: _464  and  _465
REMARK  197  A    between atoms: _464  and  _467
REMARK  198  A    between atoms: _467  and  _468
REMARK  199  A    between atoms: _474  and  _476
REMARK  200  A    between atoms: _476  and  _477
REMARK  201  A    between atoms: _476  and  _479
REMARK  202  A    between atoms: _479  and  _480
REMARK  203  A    between atoms: _483  and  _485
REMARK  204  A    between atoms: _485  and  _486
REMARK  205  A    between atoms: _485  and  _488
REMARK  206  A    between atoms: _491  and  _493
REMARK  207  A    between atoms: _493  and  _494
REMARK  208  A    between atoms: _493  and  _496
REMARK  209  A    between atoms: _496  and  _497
REMARK  210  A    between atoms: _501  and  _502
REMARK  211  A    between atoms: _507  and  _509
REMARK  212  A    between atoms: _509  and  _510
REMARK  213  A    between atoms: _509  and  _512
REMARK  214  A    between atoms: _512  and  _513
REMARK  215  A    between atoms: _517  and  _518
REMARK  216  A    between atoms: _523  and  _525
REMARK  217  A    between atoms: _525  and  _526
REMARK  218  A    between atoms: _525  and  _528
REMARK  219  A    between atoms: _528  and  _529
REMARK  220  A    between atoms: _532  and  _534
REMARK  221  A    between atoms: _534  and  _535
REMARK  222  A    between atoms: _534  and  _537
REMARK  223  A    between atoms: _537  and  _538
REMARK  224  A    between atoms: _543  and  _545
REMARK  225  A    between atoms: _545  and  _546
REMARK  226  A    between atoms: _545  and  _548
REMARK  227  A    between atoms: _551  and  _553
REMARK  228  A    between atoms: _553  and  _554
REMARK  229  A    between atoms: _553  and  _556
REMARK  230  A    between atoms: _556  and  _557
REMARK  231  A    between atoms: _560  and  _562
REMARK  232  A    between atoms: _562  and  _563
REMARK  233  A    between atoms: _565  and  _567
REMARK  234  A    between atoms: _567  and  _568
REMARK  235  A    between atoms: _567  and  _570
REMARK  236  A    between atoms: _570  and  _571
REMARK  237  A    between atoms: _571  and  _572
REMARK  238  A    between atoms: _572  and  _573
REMARK                            x       y       z     vdW  Elec       q    Type
REMARK                         _______ _______ _______ _____ _____    ______ ____
ROOT
ATOM      1  C   VAL A   5      16.162  30.156  11.573  0.00  0.00    +0.241 C 
ATOM      2  O   VAL A   5      15.190  30.506  12.249  0.00  0.00    -0.273 OA
ATOM      3  N   ILE A   6      16.903  30.994  10.859  0.00  0.00    -0.297 N 
ATOM      4  H   ILE A   6      17.742  30.624  10.367  0.00  0.00    +0.150 HD
ENDROOT
BRANCH   3   5
ATOM      5  CA  ILE A   6      16.588  32.415  10.736  0.00  0.00    +0.149 C 
BRANCH   5   6
ATOM      6  C   ILE A   6      15.855  32.550   9.403  0.00  0.00    +0.241 C 
ATOM      7  N   GLY A   7      14.622  33.040   9.442  0.00  0.00    -0.295 N 
ATOM      8  H   GLY A   7      14.211  33.321  10.355  0.00  0.00    +0.150 HD
ATOM      9  O   ILE A   6      16.407  32.206   8.354  0.00  0.00    -0.273 OA
BRANCH   7  10
ATOM     10  CA  GLY A   7      13.839  33.189   8.228  0.00  0.00    +0.176 C 
BRANCH  10  11
ATOM     11  C   GLY A   7      13.885  34.567   7.592  0.00  0.00    +0.243 C 
ATOM     12  O   GLY A   7      14.479  35.503   8.133  0.00  0.00    -0.273 OA
ATOM     13  N   ARG A   8      13.231  34.684   6.443  0.00  0.00    -0.297 N 
ATOM     14  H   ARG A   8      12.724  33.856   6.070  0.00  0.00    +0.150 HD
BRANCH  13  15
ATOM     15  CA  ARG A   8      13.196  35.930   5.683  0.00  0.00    +0.149 C 
BRANCH  15  16
ATOM     16  C   ARG A   8      12.718  37.130   6.486  0.00  0.00    +0.241 C 
ATOM     17  N   ASN A   9      11.764  36.908   7.384  0.00  0.00    -0.298 N 
ATOM     18  H   ASN A   9      11.386  35.947   7.504  0.00  0.00    +0.150 HD
ATOM     19  O   ARG A   8      13.207  38.245   6.289  0.00  0.00    -0.273 OA
BRANCH  17  20
ATOM     20  CA  ASN A   9      11.239  37.998   8.206  0.00  0.00    +0.146 C 
BRANCH  20  21
ATOM     21  C   ASN A   9      12.359  38.786   8.889  0.00  0.00    +0.227 C 
ATOM     22  O   ASN A   9      12.256  40.002   9.071  0.00  0.00    -0.286 OA
ENDBRANCH  20  21
BRANCH  20  23
ATOM     23  CB  ASN A   9      10.275  37.435   9.253  0.00  0.00    +0.112 C 
BRANCH  23  24
ATOM     24  CG  ASN A   9       9.869  38.467  10.284  0.00  0.00    +0.222 C 
ATOM     25  ND2 ASN A   9      10.614  38.516  11.375  0.00  0.00    -0.329 N 
ATOM     26 HD21 ASN A   9      10.401  39.211  12.119  0.00  0.00    +0.145 HD
ATOM     27 HD22 ASN A   9      11.413  37.860  11.489  0.00  0.00    +0.145 HD
ATOM     28  OD1 ASN A   9       8.910  39.221  10.097  0.00  0.00    -0.275 OA
ENDBRANCH  23  24
ENDBRANCH  20  23
ENDBRANCH  17  20
ENDBRANCH  15  16
BRANCH  15  29
ATOM     29  CB  ARG A   8      12.309  35.757   4.449  0.00  0.00    +0.033 C 
BRANCH  29  30
ATOM     30  CG  ARG A   8      12.788  34.671   3.500  0.00  0.00    +0.045 C 
BRANCH  30  31
ATOM     31  CD  ARG A   8      11.976  34.653   2.206  0.00  0.00    +0.174 C 
BRANCH  31  32
ATOM     32  NE  ARG A   8      10.589  34.262   2.429  0.00  0.00    -0.265 N 
ATOM     33  HE  ARG A   8      10.392  33.251   2.573  0.00  0.00    +0.259 HD
ATOM     34  CZ  ARG A   8       9.556  35.100   2.462  0.00  0.00    +0.342 C 
ATOM     35  NH2 ARG A   8       8.334  34.629   2.683  0.00  0.00    -0.292 N 
ATOM     36 HH21 ARG A   8       8.188  33.610   2.829  0.00  0.00    +0.255 HD
ATOM     37 HH22 ARG A   8       7.523  35.279   2.710  0.00  0.00    +0.255 HD
ATOM     38  NH1 ARG A   8       9.732  36.403   2.279  0.00  0.00    -0.292 N 
ATOM     39 HH11 ARG A   8       8.916  37.047   2.307  0.00  0.00    +0.255 HD
ATOM     40 HH12 ARG A   8      10.686  36.780   2.107  0.00  0.00    +0.255 HD
ENDBRANCH  31  32
ENDBRANCH  30  31
ENDBRANCH  29  30
ENDBRANCH  15  29
ENDBRANCH  13  15
ENDBRANCH  10  11
ENDBRANCH   7  10
ENDBRANCH   5   6
BRANCH   5  41
ATOM     41  CB  ILE A   6      17.852  33.291  10.662  0.00  0.00    +0.027 C 
ATOM     42  CG2 ILE A   6      17.453  34.748  10.476  0.00  0.00    +0.002 C 
BRANCH  41  43
ATOM     43  CG1 ILE A   6      18.718  33.091  11.916  0.00  0.00    +0.002 C 
ATOM     44  CD1 ILE A   6      18.021  33.391  13.221  0.00  0.00    +0.000 C 
ENDBRANCH  41  43
ENDBRANCH   5  41
ENDBRANCH   3   5
BRANCH   1  45
ATOM     45  CA  VAL A   5      16.606  28.700  11.533  0.00  0.00    +0.149 C 
BRANCH  45  47
ATOM     46  C   ASN A   4      17.378  27.275  13.324  0.00  0.00    +0.241 C 
ATOM     47  N   VAL A   5      16.417  28.033  12.814  0.00  0.00    -0.297 N 
ATOM     48  H   VAL A   5      15.523  28.152  13.332  0.00  0.00    +0.150 HD
ATOM     49  O   ASN A   4      18.449  27.072  12.745  0.00  0.00    -0.273 OA
BRANCH  46  50
ATOM     50  CA  ASN A   4      17.099  26.642  14.682  0.00  0.00    +0.158 C 
BRANCH  50  52
ATOM     51  C   THR A   3      16.624  24.343  14.069  0.00  0.00    +0.243 C 
ATOM     52  N   ASN A   4      17.439  25.228  14.633  0.00  0.00    -0.297 N 
ATOM     53  H   ASN A   4      18.336  24.904  15.047  0.00  0.00    +0.150 HD
ATOM     54  O   THR A   3      15.535  24.648  13.587  0.00  0.00    -0.273 OA
BRANCH  51  55
ATOM     55  CA  THR A   3      17.103  22.895  14.046  0.00  0.00    +0.176 C 
BRANCH  55  58
ATOM     56  C   PRO A   2      16.276  20.824  15.031  0.00  0.00    +0.241 C 
ATOM     57  O   PRO A   2      17.401  20.515  15.432  0.00  0.00    -0.273 OA
ATOM     58  N   THR A   3      16.033  21.954  14.372  0.00  0.00    -0.295 N 
ATOM     59  H   THR A   3      15.059  22.173  14.082  0.00  0.00    +0.150 HD
BRANCH  56  63
ATOM     60  C   THR A   1      13.384  21.542  15.950  0.00  0.00    +0.244 C 
ATOM     61  O   THR A   1      14.049  21.848  16.943  0.00  0.00    -0.273 OA
ATOM     62  N   PRO A   2      13.793  20.600  15.091  0.00  0.00    -0.272 N 
ATOM     63  CA  PRO A   2      15.073  19.920  15.303  0.00  0.00    +0.152 C 
ATOM     64  CB  PRO A   2      14.998  18.731  14.344  0.00  0.00    +0.031 C 
ATOM     65  CG  PRO A   2      14.128  19.237  13.244  0.00  0.00    +0.024 C 
ATOM     66  CD  PRO A   2      13.049  20.004  13.969  0.00  0.00    +0.094 C 
BRANCH  60  67
ATOM     67  CA  THR A   1      12.043  22.210  15.663  0.00  0.00    +0.172 C 
BRANCH  67  68
ATOM     68  N   THR A   1      11.312  22.319  16.923  0.00  0.00    -0.236 NA
ATOM     69  H   THR A   1      11.371  23.198  17.476  0.00  0.00    +0.142 HD
ENDBRANCH  67  68
BRANCH  67  70
ATOM     70  CB  THR A   1      12.304  23.591  15.021  0.00  0.00    +0.135 C 
ATOM     71  CG2 THR A   1      13.006  24.516  15.998  0.00  0.00    +0.034 C 
BRANCH  70  72
ATOM     72  OG1 THR A   1      13.120  23.431  13.854  0.00  0.00    -0.383 OA
ATOM     73  HG1 THR A   1      13.286  24.317  13.445  0.00  0.00    +0.210 HD
ENDBRANCH  70  72
ENDBRANCH  67  70
ENDBRANCH  60  67
ENDBRANCH  56  63
ENDBRANCH  55  58
BRANCH  55  74
ATOM     74  CB  THR A   3      17.676  22.618  12.645  0.00  0.00    +0.137 C 
ATOM     75  CG2 THR A   3      18.956  23.413  12.432  0.00  0.00    +0.034 C 
BRANCH  74  76
ATOM     76  OG1 THR A   3      17.965  21.222  12.512  0.00  0.00    -0.382 OA
ATOM     77  HG1 THR A   3      18.628  20.957  13.198  0.00  0.00    +0.210 HD
ENDBRANCH  74  76
ENDBRANCH  55  74
ENDBRANCH  51  55
ENDBRANCH  50  52
BRANCH  50  78
ATOM     78  CB  ASN A   4      17.931  27.383  15.730  0.00  0.00    +0.114 C 
BRANCH  78  79
ATOM     79  CG  ASN A   4      17.685  26.885  17.127  0.00  0.00    +0.222 C 
ATOM     80  ND2 ASN A   4      18.717  26.948  17.959  0.00  0.00    -0.329 N 
ATOM     81 HD21 ASN A   4      18.610  26.636  18.945  0.00  0.00    +0.145 HD
ATOM     82 HD22 ASN A   4      19.633  27.309  17.625  0.00  0.00    +0.145 HD
ATOM     83  OD1 ASN A   4      16.582  26.468  17.467  0.00  0.00    -0.275 OA
ENDBRANCH  78  79
ENDBRANCH  50  78
ENDBRANCH  46  50
ENDBRANCH  45  47
BRANCH  45  84
ATOM     84  CB  VAL A   5      15.831  27.996  10.385  0.00  0.00    +0.027 C 
ATOM     85  CG2 VAL A   5      14.325  28.143  10.591  0.00  0.00    +0.002 C 
ATOM     86  CG1 VAL A   5      16.227  26.530  10.312  0.00  0.00    +0.002 C 
ENDBRANCH  45  84
ENDBRANCH   1  45
TORSDOF 32
REMARK  Name = ../refined-set-2016/4a6c/4a6c_pocket.pdb
REMARK  238 active torsions:
REMARK  status: ('A' for Active; 'I' for Inactive)
REMARK    1  A    between atoms: _1  and  _3
REMARK    2  A    between atoms: _3  and  _4
REMARK    3  A    between atoms: _3  and  _6
REMARK    4  A    between atoms: _6  and  _7
REMARK    5  A    between atoms: _7  and  _8
REMARK    6  A    between atoms: _8  and  _9
REMARK    7  A    between atoms: _18  and  _20
REMARK    8  A    between atoms: _20  and  _21
REMARK    9  A    between atoms: _20  and  _23
REMARK   10  A    between atoms: _23  and  _24
REMARK   11  A    between atoms: _27  and  _29
REMARK   12  A    between atoms: _29  and  _30
REMARK   13  A    between atoms: _29  and  _32
REMARK   14  A    between atoms: _32  and  _33
REMARK   15  A    between atoms: _36  and  _38
REMARK   16  A    between atoms: _38  and  _39
REMARK   17  A    between atoms: _38  and  _41
REMARK   18  A    between atoms: _41  and  _42
REMARK   19  A    between atoms: _45  and  _47
REMARK   20  A    between atoms: _47  and  _48
REMARK   21  A    between atoms: _47  and  _50
REMARK   22  A    between atoms: _50  and  _51
REMARK   23  A    between atoms: _54  and  _56
REMARK   24  A    between atoms: _56  and  _57
REMARK   25  A    between atoms: _59  and  _61
REMARK   26  A    between atoms: _61  and  _62
REMARK   27  A    between atoms: _65  and  _67
REMARK   28  A    between atoms: _67  and  _68
REMARK   29  A    between atoms: _67  and  _70
REMARK   30  A    between atoms: _70  and  _71
REMARK   31  A    between atoms: _74  and  _76
REMARK   32  A    between atoms: _76  and  _77
REMARK   33  A    between atoms: _76  and  _79
REMARK   34  A    between atoms: _79  and  _80
REMARK   35  A    between atoms: _83  and  _85
REMARK   36  A    between atoms: _85  and  _86
REMARK   37  A    between atoms: _85  and  _88
REMARK   38  A    between atoms: _88  and  _89
REMARK   39  A    between atoms: _92  and  _94
REMARK   40  A    between atoms: _94  and  _95
REMARK   41  A    between atoms: _94  and  _97
REMARK   42  A    between atoms: _100  and  _102
REMARK   43  A    between atoms: _102  and  _103
REMARK   44  A    between atoms: _102  and  _105
REMARK   45  A    between atoms: _105  and  _106
REMARK   46  A    between atoms: _106  and  _107
REMARK   47  A    between atoms: _107  and  _108
REMARK   48  A    between atoms: _108  and  _109
REMARK   49  A    between atoms: _113  and  _115
REMARK   50  A    between atoms: _115  and  _116
REMARK   51  A    between atoms: _115  and  _118
REMARK   52  A    between atoms: _118  and  _119
REMARK   53  A    between atoms: _119  and  _120
REMARK   54  A    between atoms: _122  and  _124
REMARK   55  A    between atoms: _124  and  _125
REMARK   56  A    between atoms: _124  and  _127
REMARK   57  A    between atoms: _127  and  _128
REMARK   58  A    between atoms: _131  and  _133
REMARK   59  A    between atoms: _133  and  _134
REMARK   60  A    between atoms: _136  and  _138
REMARK   61  A    between atoms: _138  and  _139
REMARK   62  A    between atoms: _141  and  _143
REMARK   63  A    between atoms: _143  and  _144
REMARK   64  A    between atoms: _143  and  _146
REMARK   65  A    between atoms: _146  and  _147
REMARK   66  A    between atoms: _150  and  _152
REMARK   67  A    between atoms: _152  and  _153
REMARK   68  A    between atoms: _155  and  _157
REMARK   69  A    between atoms: _157  and  _158
REMARK   70  A    between atoms: _160  and  _162
REMARK   71  A    between atoms: _162  and  _163
REMARK   72  A    between atoms: _162  and  _165
REMARK   73  A    between atoms: _165  and  _166
REMARK   74  A    between atoms: _172  and  _174
REMARK   75  A    between atoms: _174  and  _175
REMARK   76  A    between atoms: _174  and  _177
REMARK   77  A    between atoms: _177  and  _178
REMARK   78  A    between atoms: _181  and  _183
REMARK   79  A    between atoms: _183  and  _184
REMARK   80  A    between atoms: _183  and  _186
REMARK   81  A    between atoms: _189  and  _191
REMARK   82  A    between atoms: _191  and  _192
REMARK   83  A    between atoms: _191  and  _194
REMARK   84  A    between atoms: _194  and  _195
REMARK   85  A    between atoms: _198  and  _200
REMARK   86  A    between atoms: _200  and  _201
REMARK   87  A    between atoms: _200  and  _203
REMARK   88  A    between atoms: _203  and  _204
REMARK   89  A    between atoms: _208  and  _209
REMARK   90  A    between atoms: _214  and  _216
REMARK   91  A    between atoms: _216  and  _217
REMARK   92  A    between atoms: _216  and  _219
REMARK   93  A    between atoms: _219  and  _220
REMARK   94  A    between atoms: _223  and  _225
REMARK   95  A    between atoms: _225  and  _226
REMARK   96  A    between atoms: _225  and  _228
REMARK   97  A    between atoms: _228  and  _229
REMARK   98  A    between atoms: _234  and  _236
REMARK   99  A    between atoms: _236  and  _237
REMARK  100  A    between atoms: _236  and  _239
REMARK  101  A    between atoms: _242  and  _244
REMARK  102  A    between atoms: _244  and  _245
REMARK  103  A    between atoms: _244  and  _247
REMARK  104  A    between atoms: _247  and  _248
REMARK  105  A    between atoms: _251  and  _253
REMARK  106  A    between atoms: _253  and  _254
REMARK  107  A    between atoms: _256  and  _258
REMARK  108  A    between atoms: _258  and  _259
REMARK  109  A    between atoms: _258  and  _261
REMARK  110  A    between atoms: _261  and  _262
REMARK  111  A    between atoms: _262  and  _263
REMARK  112  A    between atoms: _263  and  _264
REMARK  113  A    between atoms: _273  and  _275
REMARK  114  A    between atoms: _275  and  _276
REMARK  115  A    between atoms: _275  and  _278
REMARK  116  A    between atoms: _278  and  _279
REMARK  117  A    between atoms: _284  and  _286
REMARK  118  A    between atoms: _286  and  _287
REMARK  119  A    between atoms: _286  and  _289
REMARK  120  A    between atoms: _289  and  _290
REMARK  121  A    between atoms: _290  and  _291
REMARK  122  A    between atoms: _291  and  _292
REMARK  123  A    between atoms: _301  and  _303
REMARK  124  A    between atoms: _303  and  _304
REMARK  125  A    between atoms: _303  and  _306
REMARK  126  A    between atoms: _306  and  _307
REMARK  127  A    between atoms: _310  and  _312
REMARK  128  A    between atoms: _312  and  _313
REMARK  129  A    between atoms: _312  and  _315
REMARK  130  A    between atoms: _315  and  _316
REMARK  131  A    between atoms: _319  and  _321
REMARK  132  A    between atoms: _321  and  _322
REMARK  133  A    between atoms: _321  and  _324
REMARK  134  A    between atoms: _324  and  _325
REMARK  135  A    between atoms: _328  and  _330
REMARK  136  A    between atoms: _330  and  _331
REMARK  137  A    between atoms: _330  and  _333
REMARK  138  A    between atoms: _333  and  _334
REMARK  139  A    between atoms: _337  and  _339
REMARK  140  A    between atoms: _339  and  _340
REMARK  141  A    between atoms: _339  and  _342
REMARK  142  A    between atoms: _342  and  _343
REMARK  143  A    between atoms: _346  and  _348
REMARK  144  A    between atoms: _348  and  _349
REMARK  145  A    between atoms: _351  and  _353
REMARK  146  A    between atoms: _353  and  _354
REMARK  147  A    between atoms: _357  and  _359
REMARK  148  A    between atoms: _359  and  _360
REMARK  149  A    between atoms: _359  and  _362
REMARK  150  A    between atoms: _362  and  _363
REMARK  151  A    between atoms: _366  and  _368
REMARK  152  A    between atoms: _368  and  _369
REMARK  153  A    between atoms: _368  and  _371
REMARK  154  A    between atoms: _371  and  _372
REMARK  155  A    between atoms: _375  and  _377
REMARK  156  A    between atoms: _377  and  _378
REMARK  157  A    between atoms: _377  and  _380
REMARK  158  A    between atoms: _380  and  _381
REMARK  159  A    between atoms: _384  and  _386
REMARK  160  A    between atoms: _386  and  _387
REMARK  161  A    between atoms: _386  and  _389
REMARK  162  A    between atoms: _392  and  _394
REMARK  163  A    between atoms: _394  and  _395
REMARK  164  A    between atoms: _394  and  _397
REMARK  165  A    between atoms: _397  and  _398
REMARK  166  A    between atoms: _398  and  _399
REMARK  167  A    between atoms: _402  and  _404
REMARK  168  A    between atoms: _404  and  _405
REMARK  169  A    between atoms: _404  and  _407
REMARK  170  A    between atoms: _407  and  _408
REMARK  171  A    between atoms: _408  and  _409
REMARK  172  A    between atoms: _409  and  _410
REMARK  173  A    between atoms: _410  and  _411
REMARK  174  A    between atoms: _415  and  _417
REMARK  175  A    between atoms: _417  and  _418
REMARK  176  A    between atoms: _417  and  _420
REMARK  177  A    between atoms: _420  and  _421
REMARK  178  A    between atoms: _421  and  _422
REMARK  179  A    between atoms: _424  and  _426
REMARK  180  A    between atoms: _426  and  _427
REMARK  181  A    between atoms: _426  and  _429
REMARK  182  A    between atoms: _429  and  _430
REMARK  183  A    between atoms: _433  and  _435
REMARK  184  A    between atoms: _435  and  _436
REMARK  185  A    between atoms: _438  and  _440
REMARK  186  A    between atoms: _440  and  _441
REMARK  187  A    between atoms: _443  and  _445
REMARK  188  A    between atoms: _445  and  _446
REMARK  189  A    between atoms: _445  and  _448
REMARK  190  A    between atoms: _448  and  _449
REMARK  191  A    between atoms: _452  and  _454
REMARK  192  A    between atoms: _454  and  _455
REMARK  193  A    between atoms: _457  and  _459
REMARK  194  A    between atoms: _459  and  _460
REMARK  195  A    between atoms: _462  and  _464
REMARK  196  A    between atoms: _464  and  _465
REMARK  197  A    between atoms: _464  and  _467
REMARK  198  A    between atoms: _467  and  _468
REMARK  199  A    between atoms: _474  and  _476
REMARK  200  A    between atoms: _476  and  _477
REMARK  201  A    between atoms: _476  and  _479
REMARK  202  A    between atoms: _479  and  _480
REMARK  203  A    between atoms: _483  and  _485
REMARK  204  A    between atoms: _485  and  _486
REMARK  205  A    between atoms: _485  and  _488
REMARK  206  A    between atoms: _491  and  _493
REMARK  207  A    between atoms: _493  and  _494
REMARK  208  A    between atoms: _493  and  _496
REMARK  209  A    between atoms: _496  and  _497
REMARK  210  A    between atoms: _501  and  _502
REMARK  211  A    between atoms: _507  and  _509
REMARK  212  A    between atoms: _509  and  _510
REMARK  213  A    between atoms: _509  and  _512
REMARK  214  A    between atoms: _512  and  _513
REMARK  215  A    between atoms: _517  and  _518
REMARK  216  A    between atoms: _523  and  _525
REMARK  217  A    between atoms: _525  and  _526
REMARK  218  A    between atoms: _525  and  _528
REMARK  219  A    between atoms: _528  and  _529
REMARK  220  A    between atoms: _532  and  _534
REMARK  221  A    between atoms: _534  and  _535
REMARK  222  A    between atoms: _534  and  _537
REMARK  223  A    between atoms: _537  and  _538
REMARK  224  A    between atoms: _543  and  _545
REMARK  225  A    between atoms: _545  and  _546
REMARK  226  A    between atoms: _545  and  _548
REMARK  227  A    between atoms: _551  and  _553
REMARK  228  A    between atoms: _553  and  _554
REMARK  229  A    between atoms: _553  and  _556
REMARK  230  A    between atoms: _556  and  _557
REMARK  231  A    between atoms: _560  and  _562
REMARK  232  A    between atoms: _562  and  _563
REMARK  233  A    between atoms: _565  and  _567
REMARK  234  A    between atoms: _567  and  _568
REMARK  235  A    between atoms: _567  and  _570
REMARK  236  A    between atoms: _570  and  _571
REMARK  237  A    between atoms: _571  and  _572
REMARK  238  A    between atoms: _572  and  _573
REMARK                            x       y       z     vdW  Elec       q    Type
REMARK                         _______ _______ _______ _____ _____    ______ ____
ROOT
ATOM      1  NE  ARG A   1       6.130  31.337   1.105  0.00  0.00    -0.265 N 
ATOM      2  HE  ARG A   1       6.467  31.850   1.945  0.00  0.00    +0.259 HD
ATOM      3  CZ  ARG A   1       5.026  30.606   1.229  0.00  0.00    +0.342 C 
ATOM      4  NH2 ARG A   1       4.399  30.551   2.394  0.00  0.00    -0.292 N 
ATOM      5 HH21 ARG A   1       4.770  31.079   3.210  0.00  0.00    +0.255 HD
ATOM      6 HH22 ARG A   1       3.535  29.980   2.493  0.00  0.00    +0.255 HD
ATOM      7  NH1 ARG A   1       4.550  29.933   0.190  0.00  0.00    -0.292 N 
ATOM      8 HH11 ARG A   1       3.686  29.363   0.291  0.00  0.00    +0.255 HD
ATOM      9 HH12 ARG A   1       5.040  29.976  -0.726  0.00  0.00    +0.255 HD
ENDROOT
BRANCH   1  10
ATOM     10  CD  ARG A   1       6.903  31.470  -0.129  0.00  0.00    +0.174 C 
BRANCH  10  11
ATOM     11  CG  ARG A   1       7.956  32.563   0.002  0.00  0.00    +0.045 C 
BRANCH  11  12
ATOM     12  CB  ARG A   1       8.764  32.736  -1.269  0.00  0.00    +0.029 C 
BRANCH  12  13
ATOM     13  CA  ARG A   1       9.756  33.902  -1.219  0.00  0.00    +0.133 C 
BRANCH  13  14
ATOM     14  N   ARG A   1       9.051  35.180  -1.122  0.00  0.00    -0.239 NA
ATOM     15  H   ARG A   1       8.012  35.209  -1.166  0.00  0.00    +0.142 HD
ENDBRANCH  13  14
BRANCH  13  16
ATOM     16  C   ARG A   1      10.617  33.904  -2.483  0.00  0.00    +0.224 C 
ATOM     17  O   ARG A   1      10.178  34.364  -3.539  0.00  0.00    -0.287 OA
ENDBRANCH  13  16
ENDBRANCH  12  13
ENDBRANCH  11  12
ENDBRANCH  10  11
ENDBRANCH   1  10
TORSDOF 6
REMARK  Name = ../refined-set-2016/4a6c/4a6c_pocket.pdb
REMARK  238 active torsions:
REMARK  status: ('A' for Active; 'I' for Inactive)
REMARK    1  A    between atoms: _1  and  _3
REMARK    2  A    between atoms: _3  and  _4
REMARK    3  A    between atoms: _3  and  _6
REMARK    4  A    between atoms: _6  and  _7
REMARK    5  A    between atoms: _7  and  _8
REMARK    6  A    between atoms: _8  and  _9
REMARK    7  A    between atoms: _18  and  _20
REMARK    8  A    between atoms: _20  and  _21
REMARK    9  A    between atoms: _20  and  _23
REMARK   10  A    between atoms: _23  and  _24
REMARK   11  A    between atoms: _27  and  _29
REMARK   12  A    between atoms: _29  and  _30
REMARK   13  A    between atoms: _29  and  _32
REMARK   14  A    between atoms: _32  and  _33
REMARK   15  A    between atoms: _36  and  _38
REMARK   16  A    between atoms: _38  and  _39
REMARK   17  A    between atoms: _38  and  _41
REMARK   18  A    between atoms: _41  and  _42
REMARK   19  A    between atoms: _45  and  _47
REMARK   20  A    between atoms: _47  and  _48
REMARK   21  A    between atoms: _47  and  _50
REMARK   22  A    between atoms: _50  and  _51
REMARK   23  A    between atoms: _54  and  _56
REMARK   24  A    between atoms: _56  and  _57
REMARK   25  A    between atoms: _59  and  _61
REMARK   26  A    between atoms: _61  and  _62
REMARK   27  A    between atoms: _65  and  _67
REMARK   28  A    between atoms: _67  and  _68
REMARK   29  A    between atoms: _67  and  _70
REMARK   30  A    between atoms: _70  and  _71
REMARK   31  A    between atoms: _74  and  _76
REMARK   32  A    between atoms: _76  and  _77
REMARK   33  A    between atoms: _76  and  _79
REMARK   34  A    between atoms: _79  and  _80
REMARK   35  A    between atoms: _83  and  _85
REMARK   36  A    between atoms: _85  and  _86
REMARK   37  A    between atoms: _85  and  _88
REMARK   38  A    between atoms: _88  and  _89
REMARK   39  A    between atoms: _92  and  _94
REMARK   40  A    between atoms: _94  and  _95
REMARK   41  A    between atoms: _94  and  _97
REMARK   42  A    between atoms: _100  and  _102
REMARK   43  A    between atoms: _102  and  _103
REMARK   44  A    between atoms: _102  and  _105
REMARK   45  A    between atoms: _105  and  _106
REMARK   46  A    between atoms: _106  and  _107
REMARK   47  A    between atoms: _107  and  _108
REMARK   48  A    between atoms: _108  and  _109
REMARK   49  A    between atoms: _113  and  _115
REMARK   50  A    between atoms: _115  and  _116
REMARK   51  A    between atoms: _115  and  _118
REMARK   52  A    between atoms: _118  and  _119
REMARK   53  A    between atoms: _119  and  _120
REMARK   54  A    between atoms: _122  and  _124
REMARK   55  A    between atoms: _124  and  _125
REMARK   56  A    between atoms: _124  and  _127
REMARK   57  A    between atoms: _127  and  _128
REMARK   58  A    between atoms: _131  and  _133
REMARK   59  A    between atoms: _133  and  _134
REMARK   60  A    between atoms: _136  and  _138
REMARK   61  A    between atoms: _138  and  _139
REMARK   62  A    between atoms: _141  and  _143
REMARK   63  A    between atoms: _143  and  _144
REMARK   64  A    between atoms: _143  and  _146
REMARK   65  A    between atoms: _146  and  _147
REMARK   66  A    between atoms: _150  and  _152
REMARK   67  A    between atoms: _152  and  _153
REMARK   68  A    between atoms: _155  and  _157
REMARK   69  A    between atoms: _157  and  _158
REMARK   70  A    between atoms: _160  and  _162
REMARK   71  A    between atoms: _162  and  _163
REMARK   72  A    between atoms: _162  and  _165
REMARK   73  A    between atoms: _165  and  _166
REMARK   74  A    between atoms: _172  and  _174
REMARK   75  A    between atoms: _174  and  _175
REMARK   76  A    between atoms: _174  and  _177
REMARK   77  A    between atoms: _177  and  _178
REMARK   78  A    between atoms: _181  and  _183
REMARK   79  A    between atoms: _183  and  _184
REMARK   80  A    between atoms: _183  and  _186
REMARK   81  A    between atoms: _189  and  _191
REMARK   82  A    between atoms: _191  and  _192
REMARK   83  A    between atoms: _191  and  _194
REMARK   84  A    between atoms: _194  and  _195
REMARK   85  A    between atoms: _198  and  _200
REMARK   86  A    between atoms: _200  and  _201
REMARK   87  A    between atoms: _200  and  _203
REMARK   88  A    between atoms: _203  and  _204
REMARK   89  A    between atoms: _208  and  _209
REMARK   90  A    between atoms: _214  and  _216
REMARK   91  A    between atoms: _216  and  _217
REMARK   92  A    between atoms: _216  and  _219
REMARK   93  A    between atoms: _219  and  _220
REMARK   94  A    between atoms: _223  and  _225
REMARK   95  A    between atoms: _225  and  _226
REMARK   96  A    between atoms: _225  and  _228
REMARK   97  A    between atoms: _228  and  _229
REMARK   98  A    between atoms: _234  and  _236
REMARK   99  A    between atoms: _236  and  _237
REMARK  100  A    between atoms: _236  and  _239
REMARK  101  A    between atoms: _242  and  _244
REMARK  102  A    between atoms: _244  and  _245
REMARK  103  A    between atoms: _244  and  _247
REMARK  104  A    between atoms: _247  and  _248
REMARK  105  A    between atoms: _251  and  _253
REMARK  106  A    between atoms: _253  and  _254
REMARK  107  A    between atoms: _256  and  _258
REMARK  108  A    between atoms: _258  and  _259
REMARK  109  A    between atoms: _258  and  _261
REMARK  110  A    between atoms: _261  and  _262
REMARK  111  A    between atoms: _262  and  _263
REMARK  112  A    between atoms: _263  and  _264
REMARK  113  A    between atoms: _273  and  _275
REMARK  114  A    between atoms: _275  and  _276
REMARK  115  A    between atoms: _275  and  _278
REMARK  116  A    between atoms: _278  and  _279
REMARK  117  A    between atoms: _284  and  _286
REMARK  118  A    between atoms: _286  and  _287
REMARK  119  A    between atoms: _286  and  _289
REMARK  120  A    between atoms: _289  and  _290
REMARK  121  A    between atoms: _290  and  _291
REMARK  122  A    between atoms: _291  and  _292
REMARK  123  A    between atoms: _301  and  _303
REMARK  124  A    between atoms: _303  and  _304
REMARK  125  A    between atoms: _303  and  _306
REMARK  126  A    between atoms: _306  and  _307
REMARK  127  A    between atoms: _310  and  _312
REMARK  128  A    between atoms: _312  and  _313
REMARK  129  A    between atoms: _312  and  _315
REMARK  130  A    between atoms: _315  and  _316
REMARK  131  A    between atoms: _319  and  _321
REMARK  132  A    between atoms: _321  and  _322
REMARK  133  A    between atoms: _321  and  _324
REMARK  134  A    between atoms: _324  and  _325
REMARK  135  A    between atoms: _328  and  _330
REMARK  136  A    between atoms: _330  and  _331
REMARK  137  A    between atoms: _330  and  _333
REMARK  138  A    between atoms: _333  and  _334
REMARK  139  A    between atoms: _337  and  _339
REMARK  140  A    between atoms: _339  and  _340
REMARK  141  A    between atoms: _339  and  _342
REMARK  142  A    between atoms: _342  and  _343
REMARK  143  A    between atoms: _346  and  _348
REMARK  144  A    between atoms: _348  and  _349
REMARK  145  A    between atoms: _351  and  _353
REMARK  146  A    between atoms: _353  and  _354
REMARK  147  A    between atoms: _357  and  _359
REMARK  148  A    between atoms: _359  and  _360
REMARK  149  A    between atoms: _359  and  _362
REMARK  150  A    between atoms: _362  and  _363
REMARK  151  A    between atoms: _366  and  _368
REMARK  152  A    between atoms: _368  and  _369
REMARK  153  A    between atoms: _368  and  _371
REMARK  154  A    between atoms: _371  and  _372
REMARK  155  A    between atoms: _375  and  _377
REMARK  156  A    between atoms: _377  and  _378
REMARK  157  A    between atoms: _377  and  _380
REMARK  158  A    between atoms: _380  and  _381
REMARK  159  A    between atoms: _384  and  _386
REMARK  160  A    between atoms: _386  and  _387
REMARK  161  A    between atoms: _386  and  _389
REMARK  162  A    between atoms: _392  and  _394
REMARK  163  A    between atoms: _394  and  _395
REMARK  164  A    between atoms: _394  and  _397
REMARK  165  A    between atoms: _397  and  _398
REMARK  166  A    between atoms: _398  and  _399
REMARK  167  A    between atoms: _402  and  _404
REMARK  168  A    between atoms: _404  and  _405
REMARK  169  A    between atoms: _404  and  _407
REMARK  170  A    between atoms: _407  and  _408
REMARK  171  A    between atoms: _408  and  _409
REMARK  172  A    between atoms: _409  and  _410
REMARK  173  A    between atoms: _410  and  _411
REMARK  174  A    between atoms: _415  and  _417
REMARK  175  A    between atoms: _417  and  _418
REMARK  176  A    between atoms: _417  and  _420
REMARK  177  A    between atoms: _420  and  _421
REMARK  178  A    between atoms: _421  and  _422
REMARK  179  A    between atoms: _424  and  _426
REMARK  180  A    between atoms: _426  and  _427
REMARK  181  A    between atoms: _426  and  _429
REMARK  182  A    between atoms: _429  and  _430
REMARK  183  A    between atoms: _433  and  _435
REMARK  184  A    between atoms: _435  and  _436
REMARK  185  A    between atoms: _438  and  _440
REMARK  186  A    between atoms: _440  and  _441
REMARK  187  A    between atoms: _443  and  _445
REMARK  188  A    between atoms: _445  and  _446
REMARK  189  A    between atoms: _445  and  _448
REMARK  190  A    between atoms: _448  and  _449
REMARK  191  A    between atoms: _452  and  _454
REMARK  192  A    between atoms: _454  and  _455
REMARK  193  A    between atoms: _457  and  _459
REMARK  194  A    between atoms: _459  and  _460
REMARK  195  A    between atoms: _462  and  _464
REMARK  196  A    between atoms: _464  and  _465
REMARK  197  A    between atoms: _464  and  _467
REMARK  198  A    between atoms: _467  and  _468
REMARK  199  A    between atoms: _474  and  _476
REMARK  200  A    between atoms: _476  and  _477
REMARK  201  A    between atoms: _476  and  _479
REMARK  202  A    between atoms: _479  and  _480
REMARK  203  A    between atoms: _483  and  _485
REMARK  204  A    between atoms: _485  and  _486
REMARK  205  A    between atoms: _485  and  _488
REMARK  206  A    between atoms: _491  and  _493
REMARK  207  A    between atoms: _493  and  _494
REMARK  208  A    between atoms: _493  and  _496
REMARK  209  A    between atoms: _496  and  _497
REMARK  210  A    between atoms: _501  and  _502
REMARK  211  A    between atoms: _507  and  _509
REMARK  212  A    between atoms: _509  and  _510
REMARK  213  A    between atoms: _509  and  _512
REMARK  214  A    between atoms: _512  and  _513
REMARK  215  A    between atoms: _517  and  _518
REMARK  216  A    between atoms: _523  and  _525
REMARK  217  A    between atoms: _525  and  _526
REMARK  218  A    between atoms: _525  and  _528
REMARK  219  A    between atoms: _528  and  _529
REMARK  220  A    between atoms: _532  and  _534
REMARK  221  A    between atoms: _534  and  _535
REMARK  222  A    between atoms: _534  and  _537
REMARK  223  A    between atoms: _537  and  _538
REMARK  224  A    between atoms: _543  and  _545
REMARK  225  A    between atoms: _545  and  _546
REMARK  226  A    between atoms: _545  and  _548
REMARK  227  A    between atoms: _551  and  _553
REMARK  228  A    between atoms: _553  and  _554
REMARK  229  A    between atoms: _553  and  _556
REMARK  230  A    between atoms: _556  and  _557
REMARK  231  A    between atoms: _560  and  _562
REMARK  232  A    between atoms: _562  and  _563
REMARK  233  A    between atoms: _565  and  _567
REMARK  234  A    between atoms: _567  and  _568
REMARK  235  A    between atoms: _567  and  _570
REMARK  236  A    between atoms: _570  and  _571
REMARK  237  A    between atoms: _571  and  _572
REMARK  238  A    between atoms: _572  and  _573
REMARK                            x       y       z     vdW  Elec       q    Type
REMARK                         _______ _______ _______ _____ _____    ______ ____
ROOT
ATOM      1  CA  LEU A   1      10.828  31.385  -6.117  0.00  0.00    +0.133 C 
ENDROOT
BRANCH   1   2
ATOM      2  N   LEU A   1      11.310  32.378  -5.170  0.00  0.00    -0.239 NA
ATOM      3  H   LEU A   1      10.761  33.251  -5.035  0.00  0.00    +0.142 HD
ENDBRANCH   1   2
BRANCH   1   4
ATOM      4  C   LEU A   1      11.403  31.710  -7.481  0.00  0.00    +0.224 C 
ATOM      5  O   LEU A   1      11.378  32.864  -7.921  0.00  0.00    -0.287 OA
ENDBRANCH   1   4
BRANCH   1   6
ATOM      6  CB  LEU A   1       9.297  31.409  -6.173  0.00  0.00    +0.025 C 
BRANCH   6   7
ATOM      7  CG  LEU A   1       8.570  31.029  -4.879  0.00  0.00    +0.002 C 
ATOM      8  CD2 LEU A   1       8.831  29.567  -4.561  0.00  0.00    +0.000 C 
ATOM      9  CD1 LEU A   1       7.088  31.294  -5.016  0.00  0.00    +0.000 C 
ENDBRANCH   6   7
ENDBRANCH   1   6
TORSDOF 4
REMARK  Name = ../refined-set-2016/4a6c/4a6c_pocket.pdb
REMARK  238 active torsions:
REMARK  status: ('A' for Active; 'I' for Inactive)
REMARK    1  A    between atoms: _1  and  _3
REMARK    2  A    between atoms: _3  and  _4
REMARK    3  A    between atoms: _3  and  _6
REMARK    4  A    between atoms: _6  and  _7
REMARK    5  A    between atoms: _7  and  _8
REMARK    6  A    between atoms: _8  and  _9
REMARK    7  A    between atoms: _18  and  _20
REMARK    8  A    between atoms: _20  and  _21
REMARK    9  A    between atoms: _20  and  _23
REMARK   10  A    between atoms: _23  and  _24
REMARK   11  A    between atoms: _27  and  _29
REMARK   12  A    between atoms: _29  and  _30
REMARK   13  A    between atoms: _29  and  _32
REMARK   14  A    between atoms: _32  and  _33
REMARK   15  A    between atoms: _36  and  _38
REMARK   16  A    between atoms: _38  and  _39
REMARK   17  A    between atoms: _38  and  _41
REMARK   18  A    between atoms: _41  and  _42
REMARK   19  A    between atoms: _45  and  _47
REMARK   20  A    between atoms: _47  and  _48
REMARK   21  A    between atoms: _47  and  _50
REMARK   22  A    between atoms: _50  and  _51
REMARK   23  A    between atoms: _54  and  _56
REMARK   24  A    between atoms: _56  and  _57
REMARK   25  A    between atoms: _59  and  _61
REMARK   26  A    between atoms: _61  and  _62
REMARK   27  A    between atoms: _65  and  _67
REMARK   28  A    between atoms: _67  and  _68
REMARK   29  A    between atoms: _67  and  _70
REMARK   30  A    between atoms: _70  and  _71
REMARK   31  A    between atoms: _74  and  _76
REMARK   32  A    between atoms: _76  and  _77
REMARK   33  A    between atoms: _76  and  _79
REMARK   34  A    between atoms: _79  and  _80
REMARK   35  A    between atoms: _83  and  _85
REMARK   36  A    between atoms: _85  and  _86
REMARK   37  A    between atoms: _85  and  _88
REMARK   38  A    between atoms: _88  and  _89
REMARK   39  A    between atoms: _92  and  _94
REMARK   40  A    between atoms: _94  and  _95
REMARK   41  A    between atoms: _94  and  _97
REMARK   42  A    between atoms: _100  and  _102
REMARK   43  A    between atoms: _102  and  _103
REMARK   44  A    between atoms: _102  and  _105
REMARK   45  A    between atoms: _105  and  _106
REMARK   46  A    between atoms: _106  and  _107
REMARK   47  A    between atoms: _107  and  _108
REMARK   48  A    between atoms: _108  and  _109
REMARK   49  A    between atoms: _113  and  _115
REMARK   50  A    between atoms: _115  and  _116
REMARK   51  A    between atoms: _115  and  _118
REMARK   52  A    between atoms: _118  and  _119
REMARK   53  A    between atoms: _119  and  _120
REMARK   54  A    between atoms: _122  and  _124
REMARK   55  A    between atoms: _124  and  _125
REMARK   56  A    between atoms: _124  and  _127
REMARK   57  A    between atoms: _127  and  _128
REMARK   58  A    between atoms: _131  and  _133
REMARK   59  A    between atoms: _133  and  _134
REMARK   60  A    between atoms: _136  and  _138
REMARK   61  A    between atoms: _138  and  _139
REMARK   62  A    between atoms: _141  and  _143
REMARK   63  A    between atoms: _143  and  _144
REMARK   64  A    between atoms: _143  and  _146
REMARK   65  A    between atoms: _146  and  _147
REMARK   66  A    between atoms: _150  and  _152
REMARK   67  A    between atoms: _152  and  _153
REMARK   68  A    between atoms: _155  and  _157
REMARK   69  A    between atoms: _157  and  _158
REMARK   70  A    between atoms: _160  and  _162
REMARK   71  A    between atoms: _162  and  _163
REMARK   72  A    between atoms: _162  and  _165
REMARK   73  A    between atoms: _165  and  _166
REMARK   74  A    between atoms: _172  and  _174
REMARK   75  A    between atoms: _174  and  _175
REMARK   76  A    between atoms: _174  and  _177
REMARK   77  A    between atoms: _177  and  _178
REMARK   78  A    between atoms: _181  and  _183
REMARK   79  A    between atoms: _183  and  _184
REMARK   80  A    between atoms: _183  and  _186
REMARK   81  A    between atoms: _189  and  _191
REMARK   82  A    between atoms: _191  and  _192
REMARK   83  A    between atoms: _191  and  _194
REMARK   84  A    between atoms: _194  and  _195
REMARK   85  A    between atoms: _198  and  _200
REMARK   86  A    between atoms: _200  and  _201
REMARK   87  A    between atoms: _200  and  _203
REMARK   88  A    between atoms: _203  and  _204
REMARK   89  A    between atoms: _208  and  _209
REMARK   90  A    between atoms: _214  and  _216
REMARK   91  A    between atoms: _216  and  _217
REMARK   92  A    between atoms: _216  and  _219
REMARK   93  A    between atoms: _219  and  _220
REMARK   94  A    between atoms: _223  and  _225
REMARK   95  A    between atoms: _225  and  _226
REMARK   96  A    between atoms: _225  and  _228
REMARK   97  A    between atoms: _228  and  _229
REMARK   98  A    between atoms: _234  and  _236
REMARK   99  A    between atoms: _236  and  _237
REMARK  100  A    between atoms: _236  and  _239
REMARK  101  A    between atoms: _242  and  _244
REMARK  102  A    between atoms: _244  and  _245
REMARK  103  A    between atoms: _244  and  _247
REMARK  104  A    between atoms: _247  and  _248
REMARK  105  A    between atoms: _251  and  _253
REMARK  106  A    between atoms: _253  and  _254
REMARK  107  A    between atoms: _256  and  _258
REMARK  108  A    between atoms: _258  and  _259
REMARK  109  A    between atoms: _258  and  _261
REMARK  110  A    between atoms: _261  and  _262
REMARK  111  A    between atoms: _262  and  _263
REMARK  112  A    between atoms: _263  and  _264
REMARK  113  A    between atoms: _273  and  _275
REMARK  114  A    between atoms: _275  and  _276
REMARK  115  A    between atoms: _275  and  _278
REMARK  116  A    between atoms: _278  and  _279
REMARK  117  A    between atoms: _284  and  _286
REMARK  118  A    between atoms: _286  and  _287
REMARK  119  A    between atoms: _286  and  _289
REMARK  120  A    between atoms: _289  and  _290
REMARK  121  A    between atoms: _290  and  _291
REMARK  122  A    between atoms: _291  and  _292
REMARK  123  A    between atoms: _301  and  _303
REMARK  124  A    between atoms: _303  and  _304
REMARK  125  A    between atoms: _303  and  _306
REMARK  126  A    between atoms: _306  and  _307
REMARK  127  A    between atoms: _310  and  _312
REMARK  128  A    between atoms: _312  and  _313
REMARK  129  A    between atoms: _312  and  _315
REMARK  130  A    between atoms: _315  and  _316
REMARK  131  A    between atoms: _319  and  _321
REMARK  132  A    between atoms: _321  and  _322
REMARK  133  A    between atoms: _321  and  _324
REMARK  134  A    between atoms: _324  and  _325
REMARK  135  A    between atoms: _328  and  _330
REMARK  136  A    between atoms: _330  and  _331
REMARK  137  A    between atoms: _330  and  _333
REMARK  138  A    between atoms: _333  and  _334
REMARK  139  A    between atoms: _337  and  _339
REMARK  140  A    between atoms: _339  and  _340
REMARK  141  A    between atoms: _339  and  _342
REMARK  142  A    between atoms: _342  and  _343
REMARK  143  A    between atoms: _346  and  _348
REMARK  144  A    between atoms: _348  and  _349
REMARK  145  A    between atoms: _351  and  _353
REMARK  146  A    between atoms: _353  and  _354
REMARK  147  A    between atoms: _357  and  _359
REMARK  148  A    between atoms: _359  and  _360
REMARK  149  A    between atoms: _359  and  _362
REMARK  150  A    between atoms: _362  and  _363
REMARK  151  A    between atoms: _366  and  _368
REMARK  152  A    between atoms: _368  and  _369
REMARK  153  A    between atoms: _368  and  _371
REMARK  154  A    between atoms: _371  and  _372
REMARK  155  A    between atoms: _375  and  _377
REMARK  156  A    between atoms: _377  and  _378
REMARK  157  A    between atoms: _377  and  _380
REMARK  158  A    between atoms: _380  and  _381
REMARK  159  A    between atoms: _384  and  _386
REMARK  160  A    between atoms: _386  and  _387
REMARK  161  A    between atoms: _386  and  _389
REMARK  162  A    between atoms: _392  and  _394
REMARK  163  A    between atoms: _394  and  _395
REMARK  164  A    between atoms: _394  and  _397
REMARK  165  A    between atoms: _397  and  _398
REMARK  166  A    between atoms: _398  and  _399
REMARK  167  A    between atoms: _402  and  _404
REMARK  168  A    between atoms: _404  and  _405
REMARK  169  A    between atoms: _404  and  _407
REMARK  170  A    between atoms: _407  and  _408
REMARK  171  A    between atoms: _408  and  _409
REMARK  172  A    between atoms: _409  and  _410
REMARK  173  A    between atoms: _410  and  _411
REMARK  174  A    between atoms: _415  and  _417
REMARK  175  A    between atoms: _417  and  _418
REMARK  176  A    between atoms: _417  and  _420
REMARK  177  A    between atoms: _420  and  _421
REMARK  178  A    between atoms: _421  and  _422
REMARK  179  A    between atoms: _424  and  _426
REMARK  180  A    between atoms: _426  and  _427
REMARK  181  A    between atoms: _426  and  _429
REMARK  182  A    between atoms: _429  and  _430
REMARK  183  A    between atoms: _433  and  _435
REMARK  184  A    between atoms: _435  and  _436
REMARK  185  A    between atoms: _438  and  _440
REMARK  186  A    between atoms: _440  and  _441
REMARK  187  A    between atoms: _443  and  _445
REMARK  188  A    between atoms: _445  and  _446
REMARK  189  A    between atoms: _445  and  _448
REMARK  190  A    between atoms: _448  and  _449
REMARK  191  A    between atoms: _452  and  _454
REMARK  192  A    between atoms: _454  and  _455
REMARK  193  A    between atoms: _457  and  _459
REMARK  194  A    between atoms: _459  and  _460
REMARK  195  A    between atoms: _462  and  _464
REMARK  196  A    between atoms: _464  and  _465
REMARK  197  A    between atoms: _464  and  _467
REMARK  198  A    between atoms: _467  and  _468
REMARK  199  A    between atoms: _474  and  _476
REMARK  200  A    between atoms: _476  and  _477
REMARK  201  A    between atoms: _476  and  _479
REMARK  202  A    between atoms: _479  and  _480
REMARK  203  A    between atoms: _483  and  _485
REMARK  204  A    between atoms: _485  and  _486
REMARK  205  A    between atoms: _485  and  _488
REMARK  206  A    between atoms: _491  and  _493
REMARK  207  A    between atoms: _493  and  _494
REMARK  208  A    between atoms: _493  and  _496
REMARK  209  A    between atoms: _496  and  _497
REMARK  210  A    between atoms: _501  and  _502
REMARK  211  A    between atoms: _507  and  _509
REMARK  212  A    between atoms: _509  and  _510
REMARK  213  A    between atoms: _509  and  _512
REMARK  214  A    between atoms: _512  and  _513
REMARK  215  A    between atoms: _517  and  _518
REMARK  216  A    between atoms: _523  and  _525
REMARK  217  A    between atoms: _525  and  _526
REMARK  218  A    between atoms: _525  and  _528
REMARK  219  A    between atoms: _528  and  _529
REMARK  220  A    between atoms: _532  and  _534
REMARK  221  A    between atoms: _534  and  _535
REMARK  222  A    between atoms: _534  and  _537
REMARK  223  A    between atoms: _537  and  _538
REMARK  224  A    between atoms: _543  and  _545
REMARK  225  A    between atoms: _545  and  _546
REMARK  226  A    between atoms: _545  and  _548
REMARK  227  A    between atoms: _551  and  _553
REMARK  228  A    between atoms: _553  and  _554
REMARK  229  A    between atoms: _553  and  _556
REMARK  230  A    between atoms: _556  and  _557
REMARK  231  A    between atoms: _560  and  _562
REMARK  232  A    between atoms: _562  and  _563
REMARK  233  A    between atoms: _565  and  _567
REMARK  234  A    between atoms: _567  and  _568
REMARK  235  A    between atoms: _567  and  _570
REMARK  236  A    between atoms: _570  and  _571
REMARK  237  A    between atoms: _571  and  _572
REMARK  238  A    between atoms: _572  and  _573
REMARK                            x       y       z     vdW  Elec       q    Type
REMARK                         _______ _______ _______ _____ _____    ______ ____
ROOT
ATOM      1  C   GLY A   5      18.787  24.503   4.520  0.00  0.00    +0.243 C 
ATOM      2  O   GLY A   5      18.761  23.658   5.423  0.00  0.00    -0.273 OA
ATOM      3  N   ALA A   6      18.742  24.178   3.232  0.00  0.00    -0.297 N 
ATOM      4  H   ALA A   6      18.769  24.936   2.521  0.00  0.00    +0.150 HD
ENDROOT
BRANCH   3   5
ATOM      5  CA  ALA A   6      18.656  22.795   2.784  0.00  0.00    +0.149 C 
ATOM      6  CB  ALA A   6      17.588  22.674   1.697  0.00  0.00    +0.031 C 
BRANCH   5   7
ATOM      7  C   ALA A   6      19.988  22.276   2.252  0.00  0.00    +0.241 C 
ATOM      8  N   ASP A   7      20.418  21.119   2.746  0.00  0.00    -0.297 N 
ATOM      9  H   ASP A   7      19.859  20.642   3.482  0.00  0.00    +0.150 HD
ATOM     10  O   ALA A   6      20.612  22.913   1.407  0.00  0.00    -0.273 OA
BRANCH   8  11
ATOM     11  CA  ASP A   7      21.661  20.500   2.278  0.00  0.00    +0.160 C 
BRANCH  11  12
ATOM     12  C   ASP A   7      21.434  19.941   0.871  0.00  0.00    +0.241 C 
ATOM     13  N   ASP A   8      20.238  19.395   0.671  0.00  0.00    -0.297 N 
ATOM     14  H   ASP A   8      19.538  19.435   1.439  0.00  0.00    +0.150 HD
ATOM     15  O   ASP A   7      22.313  19.993   0.008  0.00  0.00    -0.273 OA
BRANCH  13  16
ATOM     16  CA  ASP A   8      19.866  18.745  -0.574  0.00  0.00    +0.160 C 
BRANCH  16  17
ATOM     17  C   ASP A   8      18.721  19.415  -1.319  0.00  0.00    +0.241 C 
ATOM     18  O   ASP A   8      18.067  20.325  -0.802  0.00  0.00    -0.273 OA
ATOM     19  N   THR A   9      18.489  18.928  -2.537  0.00  0.00    -0.295 N 
ATOM     20  H   THR A   9      19.092  18.154  -2.881  0.00  0.00    +0.150 HD
BRANCH  19  21
ATOM     21  CA  THR A   9      17.433  19.425  -3.413  0.00  0.00    +0.176 C 
BRANCH  21  22
ATOM     22  C   THR A   9      16.317  18.381  -3.437  0.00  0.00    +0.243 C 
ATOM     23  N   VAL A  10      15.116  18.794  -3.032  0.00  0.00    -0.298 N 
ATOM     24  H   VAL A  10      14.999  19.788  -2.751  0.00  0.00    +0.150 HD
ATOM     25  O   THR A   9      16.545  17.232  -3.808  0.00  0.00    -0.273 OA
BRANCH  23  26
ATOM     26  CA  VAL A  10      13.954  17.904  -2.967  0.00  0.00    +0.137 C 
BRANCH  26  27
ATOM     27  CB  VAL A  10      13.364  17.870  -1.535  0.00  0.00    +0.026 C 
ATOM     28  CG2 VAL A  10      14.473  17.617  -0.519  0.00  0.00    +0.002 C 
ATOM     29  CG1 VAL A  10      12.283  16.800  -1.430  0.00  0.00    +0.002 C 
ENDBRANCH  26  27
BRANCH  26  30
ATOM     30  C   VAL A  10      12.862  18.358  -3.931  0.00  0.00    +0.227 C 
ATOM     31  O   VAL A  10      12.393  19.489  -3.846  0.00  0.00    -0.286 OA
ENDBRANCH  26  30
ENDBRANCH  23  26
ENDBRANCH  21  22
BRANCH  21  32
ATOM     32  CB  THR A   9      17.999  19.667  -4.841  0.00  0.00    +0.137 C 
ATOM     33  CG2 THR A   9      16.883  19.953  -5.843  0.00  0.00    +0.034 C 
BRANCH  32  34
ATOM     34  OG1 THR A   9      18.899  20.784  -4.809  0.00  0.00    -0.382 OA
ATOM     35  HG1 THR A   9      19.643  20.589  -4.185  0.00  0.00    +0.210 HD
ENDBRANCH  32  34
ENDBRANCH  21  32
ENDBRANCH  19  21
ENDBRANCH  16  17
BRANCH  16  36
ATOM     36  CB  ASP A   8      19.476  17.287  -0.296  0.00  0.00    +0.143 C 
BRANCH  36  37
ATOM     37  CG  ASP A   8      20.538  16.530   0.467  0.00  0.00    +0.367 C 
ATOM     38  OD2 ASP A   8      20.174  15.803   1.419  0.00  0.00    -0.246 OA
ATOM     39  OD1 ASP A   8      21.724  16.659   0.103  0.00  0.00    -0.246 OA
ENDBRANCH  36  37
ENDBRANCH  16  36
ENDBRANCH  13  16
ENDBRANCH  11  12
BRANCH  11  40
ATOM     40  CB  ASP A   7      22.044  19.302   3.158  0.00  0.00    +0.143 C 
BRANCH  40  41
ATOM     41  CG  ASP A   7      22.721  19.685   4.459  0.00  0.00    +0.367 C 
ATOM     42  OD2 ASP A   7      23.289  18.766   5.093  0.00  0.00    -0.246 OA
ATOM     43  OD1 ASP A   7      22.686  20.865   4.860  0.00  0.00    -0.246 OA
ENDBRANCH  40  41
ENDBRANCH  11  40
ENDBRANCH   8  11
ENDBRANCH   5   7
ENDBRANCH   3   5
BRANCH   1  44
ATOM     44  CA  GLY A   5      18.878  25.990   4.837  0.00  0.00    +0.176 C 
BRANCH  44  46
ATOM     45  C   THR A   4      20.090  27.132   3.083  0.00  0.00    +0.243 C 
ATOM     46  N   GLY A   5      18.928  26.852   3.667  0.00  0.00    -0.295 N 
ATOM     47  H   GLY A   5      18.048  27.253   3.284  0.00  0.00    +0.150 HD
ATOM     48  O   THR A   4      21.168  26.686   3.491  0.00  0.00    -0.273 OA
BRANCH  45  49
ATOM     49  CA  THR A   4      20.045  28.050   1.851  0.00  0.00    +0.176 C 
BRANCH  49  51
ATOM     50  C   ASP A   3      18.090  27.139   0.724  0.00  0.00    +0.241 C 
ATOM     51  N   THR A   4      18.711  28.184   1.262  0.00  0.00    -0.295 N 
ATOM     52  H   THR A   4      18.242  29.112   1.265  0.00  0.00    +0.150 HD
ATOM     53  O   ASP A   3      18.579  26.010   0.702  0.00  0.00    -0.273 OA
BRANCH  50  54
ATOM     54  CA  ASP A   3      16.707  27.391   0.140  0.00  0.00    +0.160 C 
BRANCH  54  57
ATOM     55  C   LEU A   2      16.148  28.685  -1.830  0.00  0.00    +0.241 C 
ATOM     56  O   LEU A   2      15.767  29.636  -1.148  0.00  0.00    -0.273 OA
ATOM     57  N   ASP A   3      16.670  27.584  -1.303  0.00  0.00    -0.297 N 
ATOM     58  H   ASP A   3      17.058  26.850  -1.929  0.00  0.00    +0.150 HD
BRANCH  55  59
ATOM     59  CA  LEU A   2      16.056  28.729  -3.350  0.00  0.00    +0.149 C 
BRANCH  59  62
ATOM     60  C   LEU A   1      13.900  27.618  -3.602  0.00  0.00    +0.238 C 
ATOM     61  O   LEU A   1      14.384  26.531  -3.298  0.00  0.00    -0.274 OA
ATOM     62  N   LEU A   2      14.625  28.737  -3.670  0.00  0.00    -0.297 N 
ATOM     63  H   LEU A   2      14.168  29.627  -3.954  0.00  0.00    +0.150 HD
BRANCH  60  64
ATOM     64  CA  LEU A   1      12.408  27.727  -3.910  0.00  0.00    +0.145 C 
BRANCH  64  65
ATOM     65  N   LEU A   1      11.983  26.787  -4.944  0.00  0.00    -0.238 NA
ATOM     66  H   LEU A   1      11.885  25.783  -4.690  0.00  0.00    +0.142 HD
ENDBRANCH  64  65
BRANCH  64  67
ATOM     67  CB  LEU A   1      11.616  27.436  -2.630  0.00  0.00    +0.026 C 
BRANCH  67  68
ATOM     68  CG  LEU A   1      11.868  28.262  -1.371  0.00  0.00    +0.002 C 
ATOM     69  CD2 LEU A   1      11.314  27.511  -0.171  0.00  0.00    +0.000 C 
ATOM     70  CD1 LEU A   1      11.203  29.622  -1.497  0.00  0.00    +0.000 C 
ENDBRANCH  67  68
ENDBRANCH  64  67
ENDBRANCH  60  64
ENDBRANCH  59  62
BRANCH  59  71
ATOM     71  CB  LEU A   2      16.741  29.979  -3.899  0.00  0.00    +0.029 C 
BRANCH  71  72
ATOM     72  CG  LEU A   2      16.591  30.152  -5.413  0.00  0.00    +0.002 C 
ATOM     73  CD2 LEU A   2      17.369  31.386  -5.848  0.00  0.00    +0.000 C 
ATOM     74  CD1 LEU A   2      17.102  28.914  -6.137  0.00  0.00    +0.000 C 
ENDBRANCH  71  72
ENDBRANCH  59  71
ENDBRANCH  55  59
ENDBRANCH  54  57
BRANCH  54  75
ATOM     75  CB  ASP A   3      15.786  26.212   0.479  0.00  0.00    +0.143 C 
BRANCH  75  76
ATOM     76  CG  ASP A   3      15.328  26.225   1.914  0.00  0.00    +0.367 C 
ATOM     77  OD2 ASP A   3      16.149  26.587   2.782  0.00  0.00    -0.246 OA
ATOM     78  OD1 ASP A   3      14.153  25.878   2.173  0.00  0.00    -0.246 OA
ENDBRANCH  75  76
ENDBRANCH  54  75
ENDBRANCH  50  54
ENDBRANCH  49  51
BRANCH  49  79
ATOM     79  CB  THR A   4      20.615  29.431   2.235  0.00  0.00    +0.137 C 
ATOM     80  CG2 THR A   4      20.787  30.291   0.995  0.00  0.00    +0.034 C 
BRANCH  79  81
ATOM     81  OG1 THR A   4      19.719  30.083   3.141  0.00  0.00    -0.382 OA
ATOM     82  HG1 THR A   4      19.615  29.530   3.956  0.00  0.00    +0.210 HD
ENDBRANCH  79  81
ENDBRANCH  49  79
ENDBRANCH  45  49
ENDBRANCH  44  46
ENDBRANCH   1  44
TORSDOF 35
REMARK  Name = ../refined-set-2016/4a6c/4a6c_pocket.pdb
REMARK  238 active torsions:
REMARK  status: ('A' for Active; 'I' for Inactive)
REMARK    1  A    between atoms: _1  and  _3
REMARK    2  A    between atoms: _3  and  _4
REMARK    3  A    between atoms: _3  and  _6
REMARK    4  A    between atoms: _6  and  _7
REMARK    5  A    between atoms: _7  and  _8
REMARK    6  A    between atoms: _8  and  _9
REMARK    7  A    between atoms: _18  and  _20
REMARK    8  A    between atoms: _20  and  _21
REMARK    9  A    between atoms: _20  and  _23
REMARK   10  A    between atoms: _23  and  _24
REMARK   11  A    between atoms: _27  and  _29
REMARK   12  A    between atoms: _29  and  _30
REMARK   13  A    between atoms: _29  and  _32
REMARK   14  A    between atoms: _32  and  _33
REMARK   15  A    between atoms: _36  and  _38
REMARK   16  A    between atoms: _38  and  _39
REMARK   17  A    between atoms: _38  and  _41
REMARK   18  A    between atoms: _41  and  _42
REMARK   19  A    between atoms: _45  and  _47
REMARK   20  A    between atoms: _47  and  _48
REMARK   21  A    between atoms: _47  and  _50
REMARK   22  A    between atoms: _50  and  _51
REMARK   23  A    between atoms: _54  and  _56
REMARK   24  A    between atoms: _56  and  _57
REMARK   25  A    between atoms: _59  and  _61
REMARK   26  A    between atoms: _61  and  _62
REMARK   27  A    between atoms: _65  and  _67
REMARK   28  A    between atoms: _67  and  _68
REMARK   29  A    between atoms: _67  and  _70
REMARK   30  A    between atoms: _70  and  _71
REMARK   31  A    between atoms: _74  and  _76
REMARK   32  A    between atoms: _76  and  _77
REMARK   33  A    between atoms: _76  and  _79
REMARK   34  A    between atoms: _79  and  _80
REMARK   35  A    between atoms: _83  and  _85
REMARK   36  A    between atoms: _85  and  _86
REMARK   37  A    between atoms: _85  and  _88
REMARK   38  A    between atoms: _88  and  _89
REMARK   39  A    between atoms: _92  and  _94
REMARK   40  A    between atoms: _94  and  _95
REMARK   41  A    between atoms: _94  and  _97
REMARK   42  A    between atoms: _100  and  _102
REMARK   43  A    between atoms: _102  and  _103
REMARK   44  A    between atoms: _102  and  _105
REMARK   45  A    between atoms: _105  and  _106
REMARK   46  A    between atoms: _106  and  _107
REMARK   47  A    between atoms: _107  and  _108
REMARK   48  A    between atoms: _108  and  _109
REMARK   49  A    between atoms: _113  and  _115
REMARK   50  A    between atoms: _115  and  _116
REMARK   51  A    between atoms: _115  and  _118
REMARK   52  A    between atoms: _118  and  _119
REMARK   53  A    between atoms: _119  and  _120
REMARK   54  A    between atoms: _122  and  _124
REMARK   55  A    between atoms: _124  and  _125
REMARK   56  A    between atoms: _124  and  _127
REMARK   57  A    between atoms: _127  and  _128
REMARK   58  A    between atoms: _131  and  _133
REMARK   59  A    between atoms: _133  and  _134
REMARK   60  A    between atoms: _136  and  _138
REMARK   61  A    between atoms: _138  and  _139
REMARK   62  A    between atoms: _141  and  _143
REMARK   63  A    between atoms: _143  and  _144
REMARK   64  A    between atoms: _143  and  _146
REMARK   65  A    between atoms: _146  and  _147
REMARK   66  A    between atoms: _150  and  _152
REMARK   67  A    between atoms: _152  and  _153
REMARK   68  A    between atoms: _155  and  _157
REMARK   69  A    between atoms: _157  and  _158
REMARK   70  A    between atoms: _160  and  _162
REMARK   71  A    between atoms: _162  and  _163
REMARK   72  A    between atoms: _162  and  _165
REMARK   73  A    between atoms: _165  and  _166
REMARK   74  A    between atoms: _172  and  _174
REMARK   75  A    between atoms: _174  and  _175
REMARK   76  A    between atoms: _174  and  _177
REMARK   77  A    between atoms: _177  and  _178
REMARK   78  A    between atoms: _181  and  _183
REMARK   79  A    between atoms: _183  and  _184
REMARK   80  A    between atoms: _183  and  _186
REMARK   81  A    between atoms: _189  and  _191
REMARK   82  A    between atoms: _191  and  _192
REMARK   83  A    between atoms: _191  and  _194
REMARK   84  A    between atoms: _194  and  _195
REMARK   85  A    between atoms: _198  and  _200
REMARK   86  A    between atoms: _200  and  _201
REMARK   87  A    between atoms: _200  and  _203
REMARK   88  A    between atoms: _203  and  _204
REMARK   89  A    between atoms: _208  and  _209
REMARK   90  A    between atoms: _214  and  _216
REMARK   91  A    between atoms: _216  and  _217
REMARK   92  A    between atoms: _216  and  _219
REMARK   93  A    between atoms: _219  and  _220
REMARK   94  A    between atoms: _223  and  _225
REMARK   95  A    between atoms: _225  and  _226
REMARK   96  A    between atoms: _225  and  _228
REMARK   97  A    between atoms: _228  and  _229
REMARK   98  A    between atoms: _234  and  _236
REMARK   99  A    between atoms: _236  and  _237
REMARK  100  A    between atoms: _236  and  _239
REMARK  101  A    between atoms: _242  and  _244
REMARK  102  A    between atoms: _244  and  _245
REMARK  103  A    between atoms: _244  and  _247
REMARK  104  A    between atoms: _247  and  _248
REMARK  105  A    between atoms: _251  and  _253
REMARK  106  A    between atoms: _253  and  _254
REMARK  107  A    between atoms: _256  and  _258
REMARK  108  A    between atoms: _258  and  _259
REMARK  109  A    between atoms: _258  and  _261
REMARK  110  A    between atoms: _261  and  _262
REMARK  111  A    between atoms: _262  and  _263
REMARK  112  A    between atoms: _263  and  _264
REMARK  113  A    between atoms: _273  and  _275
REMARK  114  A    between atoms: _275  and  _276
REMARK  115  A    between atoms: _275  and  _278
REMARK  116  A    between atoms: _278  and  _279
REMARK  117  A    between atoms: _284  and  _286
REMARK  118  A    between atoms: _286  and  _287
REMARK  119  A    between atoms: _286  and  _289
REMARK  120  A    between atoms: _289  and  _290
REMARK  121  A    between atoms: _290  and  _291
REMARK  122  A    between atoms: _291  and  _292
REMARK  123  A    between atoms: _301  and  _303
REMARK  124  A    between atoms: _303  and  _304
REMARK  125  A    between atoms: _303  and  _306
REMARK  126  A    between atoms: _306  and  _307
REMARK  127  A    between atoms: _310  and  _312
REMARK  128  A    between atoms: _312  and  _313
REMARK  129  A    between atoms: _312  and  _315
REMARK  130  A    between atoms: _315  and  _316
REMARK  131  A    between atoms: _319  and  _321
REMARK  132  A    between atoms: _321  and  _322
REMARK  133  A    between atoms: _321  and  _324
REMARK  134  A    between atoms: _324  and  _325
REMARK  135  A    between atoms: _328  and  _330
REMARK  136  A    between atoms: _330  and  _331
REMARK  137  A    between atoms: _330  and  _333
REMARK  138  A    between atoms: _333  and  _334
REMARK  139  A    between atoms: _337  and  _339
REMARK  140  A    between atoms: _339  and  _340
REMARK  141  A    between atoms: _339  and  _342
REMARK  142  A    between atoms: _342  and  _343
REMARK  143  A    between atoms: _346  and  _348
REMARK  144  A    between atoms: _348  and  _349
REMARK  145  A    between atoms: _351  and  _353
REMARK  146  A    between atoms: _353  and  _354
REMARK  147  A    between atoms: _357  and  _359
REMARK  148  A    between atoms: _359  and  _360
REMARK  149  A    between atoms: _359  and  _362
REMARK  150  A    between atoms: _362  and  _363
REMARK  151  A    between atoms: _366  and  _368
REMARK  152  A    between atoms: _368  and  _369
REMARK  153  A    between atoms: _368  and  _371
REMARK  154  A    between atoms: _371  and  _372
REMARK  155  A    between atoms: _375  and  _377
REMARK  156  A    between atoms: _377  and  _378
REMARK  157  A    between atoms: _377  and  _380
REMARK  158  A    between atoms: _380  and  _381
REMARK  159  A    between atoms: _384  and  _386
REMARK  160  A    between atoms: _386  and  _387
REMARK  161  A    between atoms: _386  and  _389
REMARK  162  A    between atoms: _392  and  _394
REMARK  163  A    between atoms: _394  and  _395
REMARK  164  A    between atoms: _394  and  _397
REMARK  165  A    between atoms: _397  and  _398
REMARK  166  A    between atoms: _398  and  _399
REMARK  167  A    between atoms: _402  and  _404
REMARK  168  A    between atoms: _404  and  _405
REMARK  169  A    between atoms: _404  and  _407
REMARK  170  A    between atoms: _407  and  _408
REMARK  171  A    between atoms: _408  and  _409
REMARK  172  A    between atoms: _409  and  _410
REMARK  173  A    between atoms: _410  and  _411
REMARK  174  A    between atoms: _415  and  _417
REMARK  175  A    between atoms: _417  and  _418
REMARK  176  A    between atoms: _417  and  _420
REMARK  177  A    between atoms: _420  and  _421
REMARK  178  A    between atoms: _421  and  _422
REMARK  179  A    between atoms: _424  and  _426
REMARK  180  A    between atoms: _426  and  _427
REMARK  181  A    between atoms: _426  and  _429
REMARK  182  A    between atoms: _429  and  _430
REMARK  183  A    between atoms: _433  and  _435
REMARK  184  A    between atoms: _435  and  _436
REMARK  185  A    between atoms: _438  and  _440
REMARK  186  A    between atoms: _440  and  _441
REMARK  187  A    between atoms: _443  and  _445
REMARK  188  A    between atoms: _445  and  _446
REMARK  189  A    between atoms: _445  and  _448
REMARK  190  A    between atoms: _448  and  _449
REMARK  191  A    between atoms: _452  and  _454
REMARK  192  A    between atoms: _454  and  _455
REMARK  193  A    between atoms: _457  and  _459
REMARK  194  A    between atoms: _459  and  _460
REMARK  195  A    between atoms: _462  and  _464
REMARK  196  A    between atoms: _464  and  _465
REMARK  197  A    between atoms: _464  and  _467
REMARK  198  A    between atoms: _467  and  _468
REMARK  199  A    between atoms: _474  and  _476
REMARK  200  A    between atoms: _476  and  _477
REMARK  201  A    between atoms: _476  and  _479
REMARK  202  A    between atoms: _479  and  _480
REMARK  203  A    between atoms: _483  and  _485
REMARK  204  A    between atoms: _485  and  _486
REMARK  205  A    between atoms: _485  and  _488
REMARK  206  A    between atoms: _491  and  _493
REMARK  207  A    between atoms: _493  and  _494
REMARK  208  A    between atoms: _493  and  _496
REMARK  209  A    between atoms: _496  and  _497
REMARK  210  A    between atoms: _501  and  _502
REMARK  211  A    between atoms: _507  and  _509
REMARK  212  A    between atoms: _509  and  _510
REMARK  213  A    between atoms: _509  and  _512
REMARK  214  A    between atoms: _512  and  _513
REMARK  215  A    between atoms: _517  and  _518
REMARK  216  A    between atoms: _523  and  _525
REMARK  217  A    between atoms: _525  and  _526
REMARK  218  A    between atoms: _525  and  _528
REMARK  219  A    between atoms: _528  and  _529
REMARK  220  A    between atoms: _532  and  _534
REMARK  221  A    between atoms: _534  and  _535
REMARK  222  A    between atoms: _534  and  _537
REMARK  223  A    between atoms: _537  and  _538
REMARK  224  A    between atoms: _543  and  _545
REMARK  225  A    between atoms: _545  and  _546
REMARK  226  A    between atoms: _545  and  _548
REMARK  227  A    between atoms: _551  and  _553
REMARK  228  A    between atoms: _553  and  _554
REMARK  229  A    between atoms: _553  and  _556
REMARK  230  A    between atoms: _556  and  _557
REMARK  231  A    between atoms: _560  and  _562
REMARK  232  A    between atoms: _562  and  _563
REMARK  233  A    between atoms: _565  and  _567
REMARK  234  A    between atoms: _567  and  _568
REMARK  235  A    between atoms: _567  and  _570
REMARK  236  A    between atoms: _570  and  _571
REMARK  237  A    between atoms: _571  and  _572
REMARK  238  A    between atoms: _572  and  _573
REMARK                            x       y       z     vdW  Elec       q    Type
REMARK                         _______ _______ _______ _____ _____    ______ ____
ROOT
ATOM      1  CA  GLU A   1       7.743  16.928  -6.075  0.00  0.00    +0.134 C 
ENDROOT
BRANCH   1   2
ATOM      2  N   GLU A   1       9.055  17.569  -6.108  0.00  0.00    -0.239 NA
ATOM      3  H   GLU A   1       9.126  18.533  -6.491  0.00  0.00    +0.142 HD
ENDBRANCH   1   2
BRANCH   1   4
ATOM      4  C   GLU A   1       7.767  15.781  -7.086  0.00  0.00    +0.224 C 
ATOM      5  O   GLU A   1       8.615  15.748  -7.983  0.00  0.00    -0.287 OA
ENDBRANCH   1   4
BRANCH   1   6
ATOM      6  CB  GLU A   1       6.662  17.940  -6.465  0.00  0.00    +0.037 C 
BRANCH   6   7
ATOM      7  CG  GLU A   1       6.493  19.090  -5.477  0.00  0.00    +0.116 C 
BRANCH   7   8
ATOM      8  CD  GLU A   1       5.781  20.293  -6.080  0.00  0.00    +0.365 C 
ATOM      9  OE2 GLU A   1       6.116  21.435  -5.701  0.00  0.00    -0.246 OA
ATOM     10  OE1 GLU A   1       4.876  20.104  -6.921  0.00  0.00    -0.246 OA
ENDBRANCH   7   8
ENDBRANCH   6   7
ENDBRANCH   1   6
TORSDOF 5
REMARK  Name = ../refined-set-2016/4a6c/4a6c_pocket.pdb
REMARK  238 active torsions:
REMARK  status: ('A' for Active; 'I' for Inactive)
REMARK    1  A    between atoms: _1  and  _3
REMARK    2  A    between atoms: _3  and  _4
REMARK    3  A    between atoms: _3  and  _6
REMARK    4  A    between atoms: _6  and  _7
REMARK    5  A    between atoms: _7  and  _8
REMARK    6  A    between atoms: _8  and  _9
REMARK    7  A    between atoms: _18  and  _20
REMARK    8  A    between atoms: _20  and  _21
REMARK    9  A    between atoms: _20  and  _23
REMARK   10  A    between atoms: _23  and  _24
REMARK   11  A    between atoms: _27  and  _29
REMARK   12  A    between atoms: _29  and  _30
REMARK   13  A    between atoms: _29  and  _32
REMARK   14  A    between atoms: _32  and  _33
REMARK   15  A    between atoms: _36  and  _38
REMARK   16  A    between atoms: _38  and  _39
REMARK   17  A    between atoms: _38  and  _41
REMARK   18  A    between atoms: _41  and  _42
REMARK   19  A    between atoms: _45  and  _47
REMARK   20  A    between atoms: _47  and  _48
REMARK   21  A    between atoms: _47  and  _50
REMARK   22  A    between atoms: _50  and  _51
REMARK   23  A    between atoms: _54  and  _56
REMARK   24  A    between atoms: _56  and  _57
REMARK   25  A    between atoms: _59  and  _61
REMARK   26  A    between atoms: _61  and  _62
REMARK   27  A    between atoms: _65  and  _67
REMARK   28  A    between atoms: _67  and  _68
REMARK   29  A    between atoms: _67  and  _70
REMARK   30  A    between atoms: _70  and  _71
REMARK   31  A    between atoms: _74  and  _76
REMARK   32  A    between atoms: _76  and  _77
REMARK   33  A    between atoms: _76  and  _79
REMARK   34  A    between atoms: _79  and  _80
REMARK   35  A    between atoms: _83  and  _85
REMARK   36  A    between atoms: _85  and  _86
REMARK   37  A    between atoms: _85  and  _88
REMARK   38  A    between atoms: _88  and  _89
REMARK   39  A    between atoms: _92  and  _94
REMARK   40  A    between atoms: _94  and  _95
REMARK   41  A    between atoms: _94  and  _97
REMARK   42  A    between atoms: _100  and  _102
REMARK   43  A    between atoms: _102  and  _103
REMARK   44  A    between atoms: _102  and  _105
REMARK   45  A    between atoms: _105  and  _106
REMARK   46  A    between atoms: _106  and  _107
REMARK   47  A    between atoms: _107  and  _108
REMARK   48  A    between atoms: _108  and  _109
REMARK   49  A    between atoms: _113  and  _115
REMARK   50  A    between atoms: _115  and  _116
REMARK   51  A    between atoms: _115  and  _118
REMARK   52  A    between atoms: _118  and  _119
REMARK   53  A    between atoms: _119  and  _120
REMARK   54  A    between atoms: _122  and  _124
REMARK   55  A    between atoms: _124  and  _125
REMARK   56  A    between atoms: _124  and  _127
REMARK   57  A    between atoms: _127  and  _128
REMARK   58  A    between atoms: _131  and  _133
REMARK   59  A    between atoms: _133  and  _134
REMARK   60  A    between atoms: _136  and  _138
REMARK   61  A    between atoms: _138  and  _139
REMARK   62  A    between atoms: _141  and  _143
REMARK   63  A    between atoms: _143  and  _144
REMARK   64  A    between atoms: _143  and  _146
REMARK   65  A    between atoms: _146  and  _147
REMARK   66  A    between atoms: _150  and  _152
REMARK   67  A    between atoms: _152  and  _153
REMARK   68  A    between atoms: _155  and  _157
REMARK   69  A    between atoms: _157  and  _158
REMARK   70  A    between atoms: _160  and  _162
REMARK   71  A    between atoms: _162  and  _163
REMARK   72  A    between atoms: _162  and  _165
REMARK   73  A    between atoms: _165  and  _166
REMARK   74  A    between atoms: _172  and  _174
REMARK   75  A    between atoms: _174  and  _175
REMARK   76  A    between atoms: _174  and  _177
REMARK   77  A    between atoms: _177  and  _178
REMARK   78  A    between atoms: _181  and  _183
REMARK   79  A    between atoms: _183  and  _184
REMARK   80  A    between atoms: _183  and  _186
REMARK   81  A    between atoms: _189  and  _191
REMARK   82  A    between atoms: _191  and  _192
REMARK   83  A    between atoms: _191  and  _194
REMARK   84  A    between atoms: _194  and  _195
REMARK   85  A    between atoms: _198  and  _200
REMARK   86  A    between atoms: _200  and  _201
REMARK   87  A    between atoms: _200  and  _203
REMARK   88  A    between atoms: _203  and  _204
REMARK   89  A    between atoms: _208  and  _209
REMARK   90  A    between atoms: _214  and  _216
REMARK   91  A    between atoms: _216  and  _217
REMARK   92  A    between atoms: _216  and  _219
REMARK   93  A    between atoms: _219  and  _220
REMARK   94  A    between atoms: _223  and  _225
REMARK   95  A    between atoms: _225  and  _226
REMARK   96  A    between atoms: _225  and  _228
REMARK   97  A    between atoms: _228  and  _229
REMARK   98  A    between atoms: _234  and  _236
REMARK   99  A    between atoms: _236  and  _237
REMARK  100  A    between atoms: _236  and  _239
REMARK  101  A    between atoms: _242  and  _244
REMARK  102  A    between atoms: _244  and  _245
REMARK  103  A    between atoms: _244  and  _247
REMARK  104  A    between atoms: _247  and  _248
REMARK  105  A    between atoms: _251  and  _253
REMARK  106  A    between atoms: _253  and  _254
REMARK  107  A    between atoms: _256  and  _258
REMARK  108  A    between atoms: _258  and  _259
REMARK  109  A    between atoms: _258  and  _261
REMARK  110  A    between atoms: _261  and  _262
REMARK  111  A    between atoms: _262  and  _263
REMARK  112  A    between atoms: _263  and  _264
REMARK  113  A    between atoms: _273  and  _275
REMARK  114  A    between atoms: _275  and  _276
REMARK  115  A    between atoms: _275  and  _278
REMARK  116  A    between atoms: _278  and  _279
REMARK  117  A    between atoms: _284  and  _286
REMARK  118  A    between atoms: _286  and  _287
REMARK  119  A    between atoms: _286  and  _289
REMARK  120  A    between atoms: _289  and  _290
REMARK  121  A    between atoms: _290  and  _291
REMARK  122  A    between atoms: _291  and  _292
REMARK  123  A    between atoms: _301  and  _303
REMARK  124  A    between atoms: _303  and  _304
REMARK  125  A    between atoms: _303  and  _306
REMARK  126  A    between atoms: _306  and  _307
REMARK  127  A    between atoms: _310  and  _312
REMARK  128  A    between atoms: _312  and  _313
REMARK  129  A    between atoms: _312  and  _315
REMARK  130  A    between atoms: _315  and  _316
REMARK  131  A    between atoms: _319  and  _321
REMARK  132  A    between atoms: _321  and  _322
REMARK  133  A    between atoms: _321  and  _324
REMARK  134  A    between atoms: _324  and  _325
REMARK  135  A    between atoms: _328  and  _330
REMARK  136  A    between atoms: _330  and  _331
REMARK  137  A    between atoms: _330  and  _333
REMARK  138  A    between atoms: _333  and  _334
REMARK  139  A    between atoms: _337  and  _339
REMARK  140  A    between atoms: _339  and  _340
REMARK  141  A    between atoms: _339  and  _342
REMARK  142  A    between atoms: _342  and  _343
REMARK  143  A    between atoms: _346  and  _348
REMARK  144  A    between atoms: _348  and  _349
REMARK  145  A    between atoms: _351  and  _353
REMARK  146  A    between atoms: _353  and  _354
REMARK  147  A    between atoms: _357  and  _359
REMARK  148  A    between atoms: _359  and  _360
REMARK  149  A    between atoms: _359  and  _362
REMARK  150  A    between atoms: _362  and  _363
REMARK  151  A    between atoms: _366  and  _368
REMARK  152  A    between atoms: _368  and  _369
REMARK  153  A    between atoms: _368  and  _371
REMARK  154  A    between atoms: _371  and  _372
REMARK  155  A    between atoms: _375  and  _377
REMARK  156  A    between atoms: _377  and  _378
REMARK  157  A    between atoms: _377  and  _380
REMARK  158  A    between atoms: _380  and  _381
REMARK  159  A    between atoms: _384  and  _386
REMARK  160  A    between atoms: _386  and  _387
REMARK  161  A    between atoms: _386  and  _389
REMARK  162  A    between atoms: _392  and  _394
REMARK  163  A    between atoms: _394  and  _395
REMARK  164  A    between atoms: _394  and  _397
REMARK  165  A    between atoms: _397  and  _398
REMARK  166  A    between atoms: _398  and  _399
REMARK  167  A    between atoms: _402  and  _404
REMARK  168  A    between atoms: _404  and  _405
REMARK  169  A    between atoms: _404  and  _407
REMARK  170  A    between atoms: _407  and  _408
REMARK  171  A    between atoms: _408  and  _409
REMARK  172  A    between atoms: _409  and  _410
REMARK  173  A    between atoms: _410  and  _411
REMARK  174  A    between atoms: _415  and  _417
REMARK  175  A    between atoms: _417  and  _418
REMARK  176  A    between atoms: _417  and  _420
REMARK  177  A    between atoms: _420  and  _421
REMARK  178  A    between atoms: _421  and  _422
REMARK  179  A    between atoms: _424  and  _426
REMARK  180  A    between atoms: _426  and  _427
REMARK  181  A    between atoms: _426  and  _429
REMARK  182  A    between atoms: _429  and  _430
REMARK  183  A    between atoms: _433  and  _435
REMARK  184  A    between atoms: _435  and  _436
REMARK  185  A    between atoms: _438  and  _440
REMARK  186  A    between atoms: _440  and  _441
REMARK  187  A    between atoms: _443  and  _445
REMARK  188  A    between atoms: _445  and  _446
REMARK  189  A    between atoms: _445  and  _448
REMARK  190  A    between atoms: _448  and  _449
REMARK  191  A    between atoms: _452  and  _454
REMARK  192  A    between atoms: _454  and  _455
REMARK  193  A    between atoms: _457  and  _459
REMARK  194  A    between atoms: _459  and  _460
REMARK  195  A    between atoms: _462  and  _464
REMARK  196  A    between atoms: _464  and  _465
REMARK  197  A    between atoms: _464  and  _467
REMARK  198  A    between atoms: _467  and  _468
REMARK  199  A    between atoms: _474  and  _476
REMARK  200  A    between atoms: _476  and  _477
REMARK  201  A    between atoms: _476  and  _479
REMARK  202  A    between atoms: _479  and  _480
REMARK  203  A    between atoms: _483  and  _485
REMARK  204  A    between atoms: _485  and  _486
REMARK  205  A    between atoms: _485  and  _488
REMARK  206  A    between atoms: _491  and  _493
REMARK  207  A    between atoms: _493  and  _494
REMARK  208  A    between atoms: _493  and  _496
REMARK  209  A    between atoms: _496  and  _497
REMARK  210  A    between atoms: _501  and  _502
REMARK  211  A    between atoms: _507  and  _509
REMARK  212  A    between atoms: _509  and  _510
REMARK  213  A    between atoms: _509  and  _512
REMARK  214  A    between atoms: _512  and  _513
REMARK  215  A    between atoms: _517  and  _518
REMARK  216  A    between atoms: _523  and  _525
REMARK  217  A    between atoms: _525  and  _526
REMARK  218  A    between atoms: _525  and  _528
REMARK  219  A    between atoms: _528  and  _529
REMARK  220  A    between atoms: _532  and  _534
REMARK  221  A    between atoms: _534  and  _535
REMARK  222  A    between atoms: _534  and  _537
REMARK  223  A    between atoms: _537  and  _538
REMARK  224  A    between atoms: _543  and  _545
REMARK  225  A    between atoms: _545  and  _546
REMARK  226  A    between atoms: _545  and  _548
REMARK  227  A    between atoms: _551  and  _553
REMARK  228  A    between atoms: _553  and  _554
REMARK  229  A    between atoms: _553  and  _556
REMARK  230  A    between atoms: _556  and  _557
REMARK  231  A    between atoms: _560  and  _562
REMARK  232  A    between atoms: _562  and  _563
REMARK  233  A    between atoms: _565  and  _567
REMARK  234  A    between atoms: _567  and  _568
REMARK  235  A    between atoms: _567  and  _570
REMARK  236  A    between atoms: _570  and  _571
REMARK  237  A    between atoms: _571  and  _572
REMARK  238  A    between atoms: _572  and  _573
REMARK                            x       y       z     vdW  Elec       q    Type
REMARK                         _______ _______ _______ _____ _____    ______ ____
ROOT
ATOM      1  C   GLY A   5      12.512  18.641   9.274  0.00  0.00    +0.243 C 
ATOM      2  O   GLY A   5      12.644  17.941  10.280  0.00  0.00    -0.273 OA
ATOM      3  N   ILE A   6      11.894  19.815   9.298  0.00  0.00    -0.297 N 
ATOM      4  H   ILE A   6      11.794  20.362   8.419  0.00  0.00    +0.150 HD
ENDROOT
BRANCH   3   5
ATOM      5  CA  ILE A   6      11.354  20.346  10.544  0.00  0.00    +0.149 C 
BRANCH   5   6
ATOM      6  C   ILE A   6      10.231  19.474  11.121  0.00  0.00    +0.241 C 
ATOM      7  O   ILE A   6      10.064  19.405  12.339  0.00  0.00    -0.273 OA
ATOM      8  N   GLY A   7       9.487  18.788  10.256  0.00  0.00    -0.295 N 
ATOM      9  H   GLY A   7       9.690  18.848   9.238  0.00  0.00    +0.150 HD
BRANCH   8  10
ATOM     10  CA  GLY A   7       8.391  17.955  10.728  0.00  0.00    +0.176 C 
BRANCH  10  11
ATOM     11  C   GLY A   7       8.694  16.481  10.937  0.00  0.00    +0.243 C 
ATOM     12  O   GLY A   7       7.839  15.730  11.411  0.00  0.00    -0.273 OA
ATOM     13  N   GLY A   8       9.904  16.059  10.591  0.00  0.00    -0.295 N 
ATOM     14  H   GLY A   8      10.595  16.732  10.202  0.00  0.00    +0.150 HD
BRANCH  13  15
ATOM     15  CA  GLY A   8      10.267  14.663  10.753  0.00  0.00    +0.176 C 
BRANCH  15  16
ATOM     16  C   GLY A   8      11.062  14.136   9.575  0.00  0.00    +0.243 C 
ATOM     17  N   PHE A   9      11.116  12.818   9.434  0.00  0.00    -0.297 N 
ATOM     18  H   PHE A   9      10.615  12.211  10.114  0.00  0.00    +0.150 HD
ATOM     19  O   GLY A   8      11.614  14.910   8.795  0.00  0.00    -0.273 OA
BRANCH  17  20
ATOM     20  CA  PHE A   9      11.865  12.204   8.343  0.00  0.00    +0.153 C 
BRANCH  20  21
ATOM     21  C   PHE A   9      10.960  11.674   7.238  0.00  0.00    +0.241 C 
ATOM     22  O   PHE A   9       9.804  11.322   7.476  0.00  0.00    -0.273 OA
ATOM     23  N   ILE A  10      11.493  11.627   6.022  0.00  0.00    -0.298 N 
ATOM     24  H   ILE A  10      12.463  11.973   5.878  0.00  0.00    +0.150 HD
BRANCH  23  25
ATOM     25  CA  ILE A  10      10.749  11.102   4.888  0.00  0.00    +0.137 C 
BRANCH  25  26
ATOM     26  CB  ILE A  10      10.092  12.214   4.029  0.00  0.00    +0.026 C 
ATOM     27  CG2 ILE A  10       9.117  13.014   4.872  0.00  0.00    +0.002 C 
BRANCH  26  28
ATOM     28  CG1 ILE A  10      11.163  13.115   3.417  0.00  0.00    +0.002 C 
ATOM     29  CD1 ILE A  10      10.645  13.995   2.285  0.00  0.00    +0.000 C 
ENDBRANCH  26  28
ENDBRANCH  25  26
BRANCH  25  30
ATOM     30  C   ILE A  10      11.689  10.317   3.988  0.00  0.00    +0.227 C 
ATOM     31  O   ILE A  10      12.904  10.563   3.963  0.00  0.00    -0.286 OA
ENDBRANCH  25  30
ENDBRANCH  23  25
ENDBRANCH  20  21
BRANCH  20  32
ATOM     32  CB  PHE A   9      12.723  11.048   8.869  0.00  0.00    +0.055 C 
BRANCH  32  33
ATOM     33  CG  PHE A   9      13.583  11.410  10.043  0.00  0.00    -0.020 A 
ATOM     34  CD2 PHE A   9      13.043  11.471  11.324  0.00  0.00    -0.004 A 
ATOM     35  CE2 PHE A   9      13.836  11.810  12.414  0.00  0.00    -0.000 A 
ATOM     36  CZ  PHE A   9      15.185  12.093  12.230  0.00  0.00    -0.000 A 
ATOM     37  CE1 PHE A   9      15.735  12.036  10.953  0.00  0.00    -0.000 A 
ATOM     38  CD1 PHE A   9      14.933  11.695   9.868  0.00  0.00    -0.004 A 
ENDBRANCH  32  33
ENDBRANCH  20  32
ENDBRANCH  17  20
ENDBRANCH  15  16
ENDBRANCH  13  15
ENDBRANCH  10  11
ENDBRANCH   8  10
ENDBRANCH   5   6
BRANCH   5  39
ATOM     39  CB  ILE A   6      10.857  21.812  10.356  0.00  0.00    +0.027 C 
ATOM     40  CG2 ILE A   6      10.146  22.299  11.610  0.00  0.00    +0.002 C 
BRANCH  39  41
ATOM     41  CG1 ILE A   6      12.054  22.732  10.071  0.00  0.00    +0.002 C 
ATOM     42  CD1 ILE A   6      11.696  24.203   9.901  0.00  0.00    +0.000 C 
ENDBRANCH  39  41
ENDBRANCH   5  39
ENDBRANCH   3   5
BRANCH   1  43
ATOM     43  CA  GLY A   5      13.054  18.179   7.934  0.00  0.00    +0.176 C 
BRANCH  43  45
ATOM     44  C   GLY A   4      14.770  16.472   7.768  0.00  0.00    +0.243 C 
ATOM     45  N   GLY A   5      13.517  16.811   8.047  0.00  0.00    -0.295 N 
ATOM     46  H   GLY A   5      12.850  16.075   8.355  0.00  0.00    +0.150 HD
ATOM     47  O   GLY A   4      15.619  17.272   7.373  0.00  0.00    -0.273 OA
BRANCH  44  48
ATOM     48  CA  GLY A   4      15.108  15.010   7.958  0.00  0.00    +0.176 C 
BRANCH  48  50
ATOM     49  C   ILE A   3      15.267  13.517   6.073  0.00  0.00    +0.241 C 
ATOM     50  N   GLY A   4      15.838  14.429   6.850  0.00  0.00    -0.295 N 
ATOM     51  H   GLY A   4      16.816  14.728   6.662  0.00  0.00    +0.150 HD
ATOM     52  O   ILE A   3      14.113  13.118   6.235  0.00  0.00    -0.273 OA
BRANCH  49  53
ATOM     53  CA  ILE A   3      16.136  12.969   4.958  0.00  0.00    +0.149 C 
BRANCH  53  56
ATOM     54  C   MET A   2      16.585  10.604   4.791  0.00  0.00    +0.241 C 
ATOM     55  O   MET A   2      17.732  10.754   5.216  0.00  0.00    -0.273 OA
ATOM     56  N   ILE A   3      15.745  11.616   4.600  0.00  0.00    -0.297 N 
ATOM     57  H   ILE A   3      14.805  11.439   4.193  0.00  0.00    +0.150 HD
BRANCH  54  58
ATOM     58  CA  MET A   2      16.085   9.223   4.403  0.00  0.00    +0.149 C 
BRANCH  58  60
ATOM     59  C   LYS A   1      16.631   8.574   2.131  0.00  0.00    +0.238 C 
ATOM     60  N   MET A   2      17.010   8.772   3.382  0.00  0.00    -0.297 N 
ATOM     61  H   MET A   2      18.002   8.599   3.642  0.00  0.00    +0.150 HD
ATOM     62  O   LYS A   1      15.469   8.702   1.750  0.00  0.00    -0.274 OA
BRANCH  59  63
ATOM     63  CA  LYS A   1      17.730   8.143   1.182  0.00  0.00    +0.145 C 
BRANCH  63  64
ATOM     64  N   LYS A   1      17.182   7.172   0.254  0.00  0.00    -0.238 NA
ATOM     65  H   LYS A   1      16.159   7.168   0.069  0.00  0.00    +0.142 HD
ENDBRANCH  63  64
BRANCH  63  66
ATOM     66  CB  LYS A   1      18.308   9.380   0.484  0.00  0.00    +0.026 C 
BRANCH  66  67
ATOM     67  CG  LYS A   1      19.189  10.205   1.440  0.00  0.00    -0.000 C 
BRANCH  67  68
ATOM     68  CD  LYS A   1      19.806  11.441   0.799  0.00  0.00    -0.024 C 
BRANCH  68  69
ATOM     69  CE  LYS A   1      20.765  12.134   1.766  0.00  0.00    -0.086 C 
BRANCH  69  70
ATOM     70  NZ  LYS A   1      21.470  13.272   1.107  0.00  0.00    +0.380 N 
ATOM     71  HZ1 LYS A   1      22.113  13.722   1.789  0.00  0.00    -0.089 HD
ATOM     72  HZ2 LYS A   1      20.771  13.968   0.778  0.00  0.00    -0.089 HD
ATOM     73  HZ3 LYS A   1      22.016  12.917   0.296  0.00  0.00    -0.089 HD
ENDBRANCH  69  70
ENDBRANCH  68  69
ENDBRANCH  67  68
ENDBRANCH  66  67
ENDBRANCH  63  66
ENDBRANCH  59  63
ENDBRANCH  58  60
BRANCH  58  74
ATOM     74  CB  MET A   2      16.125   8.284   5.611  0.00  0.00    +0.041 C 
BRANCH  74  75
ATOM     75  CG  MET A   2      15.050   7.211   5.606  0.00  0.00    +0.060 C 
BRANCH  75  76
ATOM     76  SD  MET A   2      13.435   7.884   6.060  0.00  0.00    -0.139 S 
ATOM     77  CE  MET A   2      13.509   7.714   7.830  0.00  0.00    +0.069 C 
ENDBRANCH  75  76
ENDBRANCH  74  75
ENDBRANCH  58  74
ENDBRANCH  54  58
ENDBRANCH  53  56
BRANCH  53  78
ATOM     78  CB  ILE A   3      16.090  13.944   3.749  0.00  0.00    +0.027 C 
ATOM     79  CG2 ILE A   3      17.120  13.519   2.718  0.00  0.00    +0.002 C 
BRANCH  78  80
ATOM     80  CG1 ILE A   3      14.687  13.997   3.141  0.00  0.00    +0.002 C 
ATOM     81  CD1 ILE A   3      14.548  15.006   1.999  0.00  0.00    +0.000 C 
ENDBRANCH  78  80
ENDBRANCH  53  78
ENDBRANCH  49  53
ENDBRANCH  48  50
ENDBRANCH  44  48
ENDBRANCH  43  45
ENDBRANCH   1  43
TORSDOF 36
REMARK  Name = ../refined-set-2016/4a6c/4a6c_pocket.pdb
REMARK  238 active torsions:
REMARK  status: ('A' for Active; 'I' for Inactive)
REMARK    1  A    between atoms: _1  and  _3
REMARK    2  A    between atoms: _3  and  _4
REMARK    3  A    between atoms: _3  and  _6
REMARK    4  A    between atoms: _6  and  _7
REMARK    5  A    between atoms: _7  and  _8
REMARK    6  A    between atoms: _8  and  _9
REMARK    7  A    between atoms: _18  and  _20
REMARK    8  A    between atoms: _20  and  _21
REMARK    9  A    between atoms: _20  and  _23
REMARK   10  A    between atoms: _23  and  _24
REMARK   11  A    between atoms: _27  and  _29
REMARK   12  A    between atoms: _29  and  _30
REMARK   13  A    between atoms: _29  and  _32
REMARK   14  A    between atoms: _32  and  _33
REMARK   15  A    between atoms: _36  and  _38
REMARK   16  A    between atoms: _38  and  _39
REMARK   17  A    between atoms: _38  and  _41
REMARK   18  A    between atoms: _41  and  _42
REMARK   19  A    between atoms: _45  and  _47
REMARK   20  A    between atoms: _47  and  _48
REMARK   21  A    between atoms: _47  and  _50
REMARK   22  A    between atoms: _50  and  _51
REMARK   23  A    between atoms: _54  and  _56
REMARK   24  A    between atoms: _56  and  _57
REMARK   25  A    between atoms: _59  and  _61
REMARK   26  A    between atoms: _61  and  _62
REMARK   27  A    between atoms: _65  and  _67
REMARK   28  A    between atoms: _67  and  _68
REMARK   29  A    between atoms: _67  and  _70
REMARK   30  A    between atoms: _70  and  _71
REMARK   31  A    between atoms: _74  and  _76
REMARK   32  A    between atoms: _76  and  _77
REMARK   33  A    between atoms: _76  and  _79
REMARK   34  A    between atoms: _79  and  _80
REMARK   35  A    between atoms: _83  and  _85
REMARK   36  A    between atoms: _85  and  _86
REMARK   37  A    between atoms: _85  and  _88
REMARK   38  A    between atoms: _88  and  _89
REMARK   39  A    between atoms: _92  and  _94
REMARK   40  A    between atoms: _94  and  _95
REMARK   41  A    between atoms: _94  and  _97
REMARK   42  A    between atoms: _100  and  _102
REMARK   43  A    between atoms: _102  and  _103
REMARK   44  A    between atoms: _102  and  _105
REMARK   45  A    between atoms: _105  and  _106
REMARK   46  A    between atoms: _106  and  _107
REMARK   47  A    between atoms: _107  and  _108
REMARK   48  A    between atoms: _108  and  _109
REMARK   49  A    between atoms: _113  and  _115
REMARK   50  A    between atoms: _115  and  _116
REMARK   51  A    between atoms: _115  and  _118
REMARK   52  A    between atoms: _118  and  _119
REMARK   53  A    between atoms: _119  and  _120
REMARK   54  A    between atoms: _122  and  _124
REMARK   55  A    between atoms: _124  and  _125
REMARK   56  A    between atoms: _124  and  _127
REMARK   57  A    between atoms: _127  and  _128
REMARK   58  A    between atoms: _131  and  _133
REMARK   59  A    between atoms: _133  and  _134
REMARK   60  A    between atoms: _136  and  _138
REMARK   61  A    between atoms: _138  and  _139
REMARK   62  A    between atoms: _141  and  _143
REMARK   63  A    between atoms: _143  and  _144
REMARK   64  A    between atoms: _143  and  _146
REMARK   65  A    between atoms: _146  and  _147
REMARK   66  A    between atoms: _150  and  _152
REMARK   67  A    between atoms: _152  and  _153
REMARK   68  A    between atoms: _155  and  _157
REMARK   69  A    between atoms: _157  and  _158
REMARK   70  A    between atoms: _160  and  _162
REMARK   71  A    between atoms: _162  and  _163
REMARK   72  A    between atoms: _162  and  _165
REMARK   73  A    between atoms: _165  and  _166
REMARK   74  A    between atoms: _172  and  _174
REMARK   75  A    between atoms: _174  and  _175
REMARK   76  A    between atoms: _174  and  _177
REMARK   77  A    between atoms: _177  and  _178
REMARK   78  A    between atoms: _181  and  _183
REMARK   79  A    between atoms: _183  and  _184
REMARK   80  A    between atoms: _183  and  _186
REMARK   81  A    between atoms: _189  and  _191
REMARK   82  A    between atoms: _191  and  _192
REMARK   83  A    between atoms: _191  and  _194
REMARK   84  A    between atoms: _194  and  _195
REMARK   85  A    between atoms: _198  and  _200
REMARK   86  A    between atoms: _200  and  _201
REMARK   87  A    between atoms: _200  and  _203
REMARK   88  A    between atoms: _203  and  _204
REMARK   89  A    between atoms: _208  and  _209
REMARK   90  A    between atoms: _214  and  _216
REMARK   91  A    between atoms: _216  and  _217
REMARK   92  A    between atoms: _216  and  _219
REMARK   93  A    between atoms: _219  and  _220
REMARK   94  A    between atoms: _223  and  _225
REMARK   95  A    between atoms: _225  and  _226
REMARK   96  A    between atoms: _225  and  _228
REMARK   97  A    between atoms: _228  and  _229
REMARK   98  A    between atoms: _234  and  _236
REMARK   99  A    between atoms: _236  and  _237
REMARK  100  A    between atoms: _236  and  _239
REMARK  101  A    between atoms: _242  and  _244
REMARK  102  A    between atoms: _244  and  _245
REMARK  103  A    between atoms: _244  and  _247
REMARK  104  A    between atoms: _247  and  _248
REMARK  105  A    between atoms: _251  and  _253
REMARK  106  A    between atoms: _253  and  _254
REMARK  107  A    between atoms: _256  and  _258
REMARK  108  A    between atoms: _258  and  _259
REMARK  109  A    between atoms: _258  and  _261
REMARK  110  A    between atoms: _261  and  _262
REMARK  111  A    between atoms: _262  and  _263
REMARK  112  A    between atoms: _263  and  _264
REMARK  113  A    between atoms: _273  and  _275
REMARK  114  A    between atoms: _275  and  _276
REMARK  115  A    between atoms: _275  and  _278
REMARK  116  A    between atoms: _278  and  _279
REMARK  117  A    between atoms: _284  and  _286
REMARK  118  A    between atoms: _286  and  _287
REMARK  119  A    between atoms: _286  and  _289
REMARK  120  A    between atoms: _289  and  _290
REMARK  121  A    between atoms: _290  and  _291
REMARK  122  A    between atoms: _291  and  _292
REMARK  123  A    between atoms: _301  and  _303
REMARK  124  A    between atoms: _303  and  _304
REMARK  125  A    between atoms: _303  and  _306
REMARK  126  A    between atoms: _306  and  _307
REMARK  127  A    between atoms: _310  and  _312
REMARK  128  A    between atoms: _312  and  _313
REMARK  129  A    between atoms: _312  and  _315
REMARK  130  A    between atoms: _315  and  _316
REMARK  131  A    between atoms: _319  and  _321
REMARK  132  A    between atoms: _321  and  _322
REMARK  133  A    between atoms: _321  and  _324
REMARK  134  A    between atoms: _324  and  _325
REMARK  135  A    between atoms: _328  and  _330
REMARK  136  A    between atoms: _330  and  _331
REMARK  137  A    between atoms: _330  and  _333
REMARK  138  A    between atoms: _333  and  _334
REMARK  139  A    between atoms: _337  and  _339
REMARK  140  A    between atoms: _339  and  _340
REMARK  141  A    between atoms: _339  and  _342
REMARK  142  A    between atoms: _342  and  _343
REMARK  143  A    between atoms: _346  and  _348
REMARK  144  A    between atoms: _348  and  _349
REMARK  145  A    between atoms: _351  and  _353
REMARK  146  A    between atoms: _353  and  _354
REMARK  147  A    between atoms: _357  and  _359
REMARK  148  A    between atoms: _359  and  _360
REMARK  149  A    between atoms: _359  and  _362
REMARK  150  A    between atoms: _362  and  _363
REMARK  151  A    between atoms: _366  and  _368
REMARK  152  A    between atoms: _368  and  _369
REMARK  153  A    between atoms: _368  and  _371
REMARK  154  A    between atoms: _371  and  _372
REMARK  155  A    between atoms: _375  and  _377
REMARK  156  A    between atoms: _377  and  _378
REMARK  157  A    between atoms: _377  and  _380
REMARK  158  A    between atoms: _380  and  _381
REMARK  159  A    between atoms: _384  and  _386
REMARK  160  A    between atoms: _386  and  _387
REMARK  161  A    between atoms: _386  and  _389
REMARK  162  A    between atoms: _392  and  _394
REMARK  163  A    between atoms: _394  and  _395
REMARK  164  A    between atoms: _394  and  _397
REMARK  165  A    between atoms: _397  and  _398
REMARK  166  A    between atoms: _398  and  _399
REMARK  167  A    between atoms: _402  and  _404
REMARK  168  A    between atoms: _404  and  _405
REMARK  169  A    between atoms: _404  and  _407
REMARK  170  A    between atoms: _407  and  _408
REMARK  171  A    between atoms: _408  and  _409
REMARK  172  A    between atoms: _409  and  _410
REMARK  173  A    between atoms: _410  and  _411
REMARK  174  A    between atoms: _415  and  _417
REMARK  175  A    between atoms: _417  and  _418
REMARK  176  A    between atoms: _417  and  _420
REMARK  177  A    between atoms: _420  and  _421
REMARK  178  A    between atoms: _421  and  _422
REMARK  179  A    between atoms: _424  and  _426
REMARK  180  A    between atoms: _426  and  _427
REMARK  181  A    between atoms: _426  and  _429
REMARK  182  A    between atoms: _429  and  _430
REMARK  183  A    between atoms: _433  and  _435
REMARK  184  A    between atoms: _435  and  _436
REMARK  185  A    between atoms: _438  and  _440
REMARK  186  A    between atoms: _440  and  _441
REMARK  187  A    between atoms: _443  and  _445
REMARK  188  A    between atoms: _445  and  _446
REMARK  189  A    between atoms: _445  and  _448
REMARK  190  A    between atoms: _448  and  _449
REMARK  191  A    between atoms: _452  and  _454
REMARK  192  A    between atoms: _454  and  _455
REMARK  193  A    between atoms: _457  and  _459
REMARK  194  A    between atoms: _459  and  _460
REMARK  195  A    between atoms: _462  and  _464
REMARK  196  A    between atoms: _464  and  _465
REMARK  197  A    between atoms: _464  and  _467
REMARK  198  A    between atoms: _467  and  _468
REMARK  199  A    between atoms: _474  and  _476
REMARK  200  A    between atoms: _476  and  _477
REMARK  201  A    between atoms: _476  and  _479
REMARK  202  A    between atoms: _479  and  _480
REMARK  203  A    between atoms: _483  and  _485
REMARK  204  A    between atoms: _485  and  _486
REMARK  205  A    between atoms: _485  and  _488
REMARK  206  A    between atoms: _491  and  _493
REMARK  207  A    between atoms: _493  and  _494
REMARK  208  A    between atoms: _493  and  _496
REMARK  209  A    between atoms: _496  and  _497
REMARK  210  A    between atoms: _501  and  _502
REMARK  211  A    between atoms: _507  and  _509
REMARK  212  A    between atoms: _509  and  _510
REMARK  213  A    between atoms: _509  and  _512
REMARK  214  A    between atoms: _512  and  _513
REMARK  215  A    between atoms: _517  and  _518
REMARK  216  A    between atoms: _523  and  _525
REMARK  217  A    between atoms: _525  and  _526
REMARK  218  A    between atoms: _525  and  _528
REMARK  219  A    between atoms: _528  and  _529
REMARK  220  A    between atoms: _532  and  _534
REMARK  221  A    between atoms: _534  and  _535
REMARK  222  A    between atoms: _534  and  _537
REMARK  223  A    between atoms: _537  and  _538
REMARK  224  A    between atoms: _543  and  _545
REMARK  225  A    between atoms: _545  and  _546
REMARK  226  A    between atoms: _545  and  _548
REMARK  227  A    between atoms: _551  and  _553
REMARK  228  A    between atoms: _553  and  _554
REMARK  229  A    between atoms: _553  and  _556
REMARK  230  A    between atoms: _556  and  _557
REMARK  231  A    between atoms: _560  and  _562
REMARK  232  A    between atoms: _562  and  _563
REMARK  233  A    between atoms: _565  and  _567
REMARK  234  A    between atoms: _567  and  _568
REMARK  235  A    between atoms: _567  and  _570
REMARK  236  A    between atoms: _570  and  _571
REMARK  237  A    between atoms: _571  and  _572
REMARK  238  A    between atoms: _572  and  _573
REMARK                            x       y       z     vdW  Elec       q    Type
REMARK                         _______ _______ _______ _____ _____    ______ ____
ROOT
ATOM      1  CA  VAL A   1      12.917   9.848  -1.087  0.00  0.00    +0.133 C 
ENDROOT
BRANCH   1   2
ATOM      2  CB  VAL A   1      13.614  11.224  -1.059  0.00  0.00    +0.023 C 
ATOM      3  CG2 VAL A   1      12.850  12.182  -0.168  0.00  0.00    +0.002 C 
ATOM      4  CG1 VAL A   1      15.052  11.062  -0.560  0.00  0.00    +0.002 C 
ENDBRANCH   1   2
BRANCH   1   5
ATOM      5  N   VAL A   1      12.892   9.241   0.232  0.00  0.00    -0.239 NA
ATOM      6  H   VAL A   1      13.760   8.813   0.611  0.00  0.00    +0.142 HD
ENDBRANCH   1   5
BRANCH   1   7
ATOM      7  C   VAL A   1      13.680   8.972  -2.067  0.00  0.00    +0.224 C 
ATOM      8  O   VAL A   1      14.372   8.032  -1.670  0.00  0.00    -0.287 OA
ENDBRANCH   1   7
TORSDOF 3
REMARK  Name = ../refined-set-2016/4a6c/4a6c_pocket.pdb
REMARK  238 active torsions:
REMARK  status: ('A' for Active; 'I' for Inactive)
REMARK    1  A    between atoms: _1  and  _3
REMARK    2  A    between atoms: _3  and  _4
REMARK    3  A    between atoms: _3  and  _6
REMARK    4  A    between atoms: _6  and  _7
REMARK    5  A    between atoms: _7  and  _8
REMARK    6  A    between atoms: _8  and  _9
REMARK    7  A    between atoms: _18  and  _20
REMARK    8  A    between atoms: _20  and  _21
REMARK    9  A    between atoms: _20  and  _23
REMARK   10  A    between atoms: _23  and  _24
REMARK   11  A    between atoms: _27  and  _29
REMARK   12  A    between atoms: _29  and  _30
REMARK   13  A    between atoms: _29  and  _32
REMARK   14  A    between atoms: _32  and  _33
REMARK   15  A    between atoms: _36  and  _38
REMARK   16  A    between atoms: _38  and  _39
REMARK   17  A    between atoms: _38  and  _41
REMARK   18  A    between atoms: _41  and  _42
REMARK   19  A    between atoms: _45  and  _47
REMARK   20  A    between atoms: _47  and  _48
REMARK   21  A    between atoms: _47  and  _50
REMARK   22  A    between atoms: _50  and  _51
REMARK   23  A    between atoms: _54  and  _56
REMARK   24  A    between atoms: _56  and  _57
REMARK   25  A    between atoms: _59  and  _61
REMARK   26  A    between atoms: _61  and  _62
REMARK   27  A    between atoms: _65  and  _67
REMARK   28  A    between atoms: _67  and  _68
REMARK   29  A    between atoms: _67  and  _70
REMARK   30  A    between atoms: _70  and  _71
REMARK   31  A    between atoms: _74  and  _76
REMARK   32  A    between atoms: _76  and  _77
REMARK   33  A    between atoms: _76  and  _79
REMARK   34  A    between atoms: _79  and  _80
REMARK   35  A    between atoms: _83  and  _85
REMARK   36  A    between atoms: _85  and  _86
REMARK   37  A    between atoms: _85  and  _88
REMARK   38  A    between atoms: _88  and  _89
REMARK   39  A    between atoms: _92  and  _94
REMARK   40  A    between atoms: _94  and  _95
REMARK   41  A    between atoms: _94  and  _97
REMARK   42  A    between atoms: _100  and  _102
REMARK   43  A    between atoms: _102  and  _103
REMARK   44  A    between atoms: _102  and  _105
REMARK   45  A    between atoms: _105  and  _106
REMARK   46  A    between atoms: _106  and  _107
REMARK   47  A    between atoms: _107  and  _108
REMARK   48  A    between atoms: _108  and  _109
REMARK   49  A    between atoms: _113  and  _115
REMARK   50  A    between atoms: _115  and  _116
REMARK   51  A    between atoms: _115  and  _118
REMARK   52  A    between atoms: _118  and  _119
REMARK   53  A    between atoms: _119  and  _120
REMARK   54  A    between atoms: _122  and  _124
REMARK   55  A    between atoms: _124  and  _125
REMARK   56  A    between atoms: _124  and  _127
REMARK   57  A    between atoms: _127  and  _128
REMARK   58  A    between atoms: _131  and  _133
REMARK   59  A    between atoms: _133  and  _134
REMARK   60  A    between atoms: _136  and  _138
REMARK   61  A    between atoms: _138  and  _139
REMARK   62  A    between atoms: _141  and  _143
REMARK   63  A    between atoms: _143  and  _144
REMARK   64  A    between atoms: _143  and  _146
REMARK   65  A    between atoms: _146  and  _147
REMARK   66  A    between atoms: _150  and  _152
REMARK   67  A    between atoms: _152  and  _153
REMARK   68  A    between atoms: _155  and  _157
REMARK   69  A    between atoms: _157  and  _158
REMARK   70  A    between atoms: _160  and  _162
REMARK   71  A    between atoms: _162  and  _163
REMARK   72  A    between atoms: _162  and  _165
REMARK   73  A    between atoms: _165  and  _166
REMARK   74  A    between atoms: _172  and  _174
REMARK   75  A    between atoms: _174  and  _175
REMARK   76  A    between atoms: _174  and  _177
REMARK   77  A    between atoms: _177  and  _178
REMARK   78  A    between atoms: _181  and  _183
REMARK   79  A    between atoms: _183  and  _184
REMARK   80  A    between atoms: _183  and  _186
REMARK   81  A    between atoms: _189  and  _191
REMARK   82  A    between atoms: _191  and  _192
REMARK   83  A    between atoms: _191  and  _194
REMARK   84  A    between atoms: _194  and  _195
REMARK   85  A    between atoms: _198  and  _200
REMARK   86  A    between atoms: _200  and  _201
REMARK   87  A    between atoms: _200  and  _203
REMARK   88  A    between atoms: _203  and  _204
REMARK   89  A    between atoms: _208  and  _209
REMARK   90  A    between atoms: _214  and  _216
REMARK   91  A    between atoms: _216  and  _217
REMARK   92  A    between atoms: _216  and  _219
REMARK   93  A    between atoms: _219  and  _220
REMARK   94  A    between atoms: _223  and  _225
REMARK   95  A    between atoms: _225  and  _226
REMARK   96  A    between atoms: _225  and  _228
REMARK   97  A    between atoms: _228  and  _229
REMARK   98  A    between atoms: _234  and  _236
REMARK   99  A    between atoms: _236  and  _237
REMARK  100  A    between atoms: _236  and  _239
REMARK  101  A    between atoms: _242  and  _244
REMARK  102  A    between atoms: _244  and  _245
REMARK  103  A    between atoms: _244  and  _247
REMARK  104  A    between atoms: _247  and  _248
REMARK  105  A    between atoms: _251  and  _253
REMARK  106  A    between atoms: _253  and  _254
REMARK  107  A    between atoms: _256  and  _258
REMARK  108  A    between atoms: _258  and  _259
REMARK  109  A    between atoms: _258  and  _261
REMARK  110  A    between atoms: _261  and  _262
REMARK  111  A    between atoms: _262  and  _263
REMARK  112  A    between atoms: _263  and  _264
REMARK  113  A    between atoms: _273  and  _275
REMARK  114  A    between atoms: _275  and  _276
REMARK  115  A    between atoms: _275  and  _278
REMARK  116  A    between atoms: _278  and  _279
REMARK  117  A    between atoms: _284  and  _286
REMARK  118  A    between atoms: _286  and  _287
REMARK  119  A    between atoms: _286  and  _289
REMARK  120  A    between atoms: _289  and  _290
REMARK  121  A    between atoms: _290  and  _291
REMARK  122  A    between atoms: _291  and  _292
REMARK  123  A    between atoms: _301  and  _303
REMARK  124  A    between atoms: _303  and  _304
REMARK  125  A    between atoms: _303  and  _306
REMARK  126  A    between atoms: _306  and  _307
REMARK  127  A    between atoms: _310  and  _312
REMARK  128  A    between atoms: _312  and  _313
REMARK  129  A    between atoms: _312  and  _315
REMARK  130  A    between atoms: _315  and  _316
REMARK  131  A    between atoms: _319  and  _321
REMARK  132  A    between atoms: _321  and  _322
REMARK  133  A    between atoms: _321  and  _324
REMARK  134  A    between atoms: _324  and  _325
REMARK  135  A    between atoms: _328  and  _330
REMARK  136  A    between atoms: _330  and  _331
REMARK  137  A    between atoms: _330  and  _333
REMARK  138  A    between atoms: _333  and  _334
REMARK  139  A    between atoms: _337  and  _339
REMARK  140  A    between atoms: _339  and  _340
REMARK  141  A    between atoms: _339  and  _342
REMARK  142  A    between atoms: _342  and  _343
REMARK  143  A    between atoms: _346  and  _348
REMARK  144  A    between atoms: _348  and  _349
REMARK  145  A    between atoms: _351  and  _353
REMARK  146  A    between atoms: _353  and  _354
REMARK  147  A    between atoms: _357  and  _359
REMARK  148  A    between atoms: _359  and  _360
REMARK  149  A    between atoms: _359  and  _362
REMARK  150  A    between atoms: _362  and  _363
REMARK  151  A    between atoms: _366  and  _368
REMARK  152  A    between atoms: _368  and  _369
REMARK  153  A    between atoms: _368  and  _371
REMARK  154  A    between atoms: _371  and  _372
REMARK  155  A    between atoms: _375  and  _377
REMARK  156  A    between atoms: _377  and  _378
REMARK  157  A    between atoms: _377  and  _380
REMARK  158  A    between atoms: _380  and  _381
REMARK  159  A    between atoms: _384  and  _386
REMARK  160  A    between atoms: _386  and  _387
REMARK  161  A    between atoms: _386  and  _389
REMARK  162  A    between atoms: _392  and  _394
REMARK  163  A    between atoms: _394  and  _395
REMARK  164  A    between atoms: _394  and  _397
REMARK  165  A    between atoms: _397  and  _398
REMARK  166  A    between atoms: _398  and  _399
REMARK  167  A    between atoms: _402  and  _404
REMARK  168  A    between atoms: _404  and  _405
REMARK  169  A    between atoms: _404  and  _407
REMARK  170  A    between atoms: _407  and  _408
REMARK  171  A    between atoms: _408  and  _409
REMARK  172  A    between atoms: _409  and  _410
REMARK  173  A    between atoms: _410  and  _411
REMARK  174  A    between atoms: _415  and  _417
REMARK  175  A    between atoms: _417  and  _418
REMARK  176  A    between atoms: _417  and  _420
REMARK  177  A    between atoms: _420  and  _421
REMARK  178  A    between atoms: _421  and  _422
REMARK  179  A    between atoms: _424  and  _426
REMARK  180  A    between atoms: _426  and  _427
REMARK  181  A    between atoms: _426  and  _429
REMARK  182  A    between atoms: _429  and  _430
REMARK  183  A    between atoms: _433  and  _435
REMARK  184  A    between atoms: _435  and  _436
REMARK  185  A    between atoms: _438  and  _440
REMARK  186  A    between atoms: _440  and  _441
REMARK  187  A    between atoms: _443  and  _445
REMARK  188  A    between atoms: _445  and  _446
REMARK  189  A    between atoms: _445  and  _448
REMARK  190  A    between atoms: _448  and  _449
REMARK  191  A    between atoms: _452  and  _454
REMARK  192  A    between atoms: _454  and  _455
REMARK  193  A    between atoms: _457  and  _459
REMARK  194  A    between atoms: _459  and  _460
REMARK  195  A    between atoms: _462  and  _464
REMARK  196  A    between atoms: _464  and  _465
REMARK  197  A    between atoms: _464  and  _467
REMARK  198  A    between atoms: _467  and  _468
REMARK  199  A    between atoms: _474  and  _476
REMARK  200  A    between atoms: _476  and  _477
REMARK  201  A    between atoms: _476  and  _479
REMARK  202  A    between atoms: _479  and  _480
REMARK  203  A    between atoms: _483  and  _485
REMARK  204  A    between atoms: _485  and  _486
REMARK  205  A    between atoms: _485  and  _488
REMARK  206  A    between atoms: _491  and  _493
REMARK  207  A    between atoms: _493  and  _494
REMARK  208  A    between atoms: _493  and  _496
REMARK  209  A    between atoms: _496  and  _497
REMARK  210  A    between atoms: _501  and  _502
REMARK  211  A    between atoms: _507  and  _509
REMARK  212  A    between atoms: _509  and  _510
REMARK  213  A    between atoms: _509  and  _512
REMARK  214  A    between atoms: _512  and  _513
REMARK  215  A    between atoms: _517  and  _518
REMARK  216  A    between atoms: _523  and  _525
REMARK  217  A    between atoms: _525  and  _526
REMARK  218  A    between atoms: _525  and  _528
REMARK  219  A    between atoms: _528  and  _529
REMARK  220  A    between atoms: _532  and  _534
REMARK  221  A    between atoms: _534  and  _535
REMARK  222  A    between atoms: _534  and  _537
REMARK  223  A    between atoms: _537  and  _538
REMARK  224  A    between atoms: _543  and  _545
REMARK  225  A    between atoms: _545  and  _546
REMARK  226  A    between atoms: _545  and  _548
REMARK  227  A    between atoms: _551  and  _553
REMARK  228  A    between atoms: _553  and  _554
REMARK  229  A    between atoms: _553  and  _556
REMARK  230  A    between atoms: _556  and  _557
REMARK  231  A    between atoms: _560  and  _562
REMARK  232  A    between atoms: _562  and  _563
REMARK  233  A    between atoms: _565  and  _567
REMARK  234  A    between atoms: _567  and  _568
REMARK  235  A    between atoms: _567  and  _570
REMARK  236  A    between atoms: _570  and  _571
REMARK  237  A    between atoms: _571  and  _572
REMARK  238  A    between atoms: _572  and  _573
REMARK                            x       y       z     vdW  Elec       q    Type
REMARK                         _______ _______ _______ _____ _____    ______ ____
ROOT
ATOM      1  CA  LEU A   1      15.689  13.796  -4.402  0.00  0.00    +0.133 C 
ENDROOT
BRANCH   1   2
ATOM      2  N   LEU A   1      16.460  14.729  -5.207  0.00  0.00    -0.239 NA
ATOM      3  H   LEU A   1      16.400  15.744  -4.988  0.00  0.00    +0.142 HD
ENDBRANCH   1   2
BRANCH   1   4
ATOM      4  C   LEU A   1      14.198  14.002  -4.645  0.00  0.00    +0.224 C 
ATOM      5  O   LEU A   1      13.686  15.104  -4.458  0.00  0.00    -0.287 OA
ENDBRANCH   1   4
BRANCH   1   6
ATOM      6  CB  LEU A   1      15.991  14.013  -2.914  0.00  0.00    +0.025 C 
BRANCH   6   7
ATOM      7  CG  LEU A   1      17.463  14.087  -2.487  0.00  0.00    +0.002 C 
ATOM      8  CD2 LEU A   1      17.551  14.355  -0.996  0.00  0.00    +0.000 C 
ATOM      9  CD1 LEU A   1      18.182  12.790  -2.830  0.00  0.00    +0.000 C 
ENDBRANCH   6   7
ENDBRANCH   1   6
TORSDOF 4
REMARK  Name = ../refined-set-2016/4a6c/4a6c_pocket.pdb
REMARK  238 active torsions:
REMARK  status: ('A' for Active; 'I' for Inactive)
REMARK    1  A    between atoms: _1  and  _3
REMARK    2  A    between atoms: _3  and  _4
REMARK    3  A    between atoms: _3  and  _6
REMARK    4  A    between atoms: _6  and  _7
REMARK    5  A    between atoms: _7  and  _8
REMARK    6  A    between atoms: _8  and  _9
REMARK    7  A    between atoms: _18  and  _20
REMARK    8  A    between atoms: _20  and  _21
REMARK    9  A    between atoms: _20  and  _23
REMARK   10  A    between atoms: _23  and  _24
REMARK   11  A    between atoms: _27  and  _29
REMARK   12  A    between atoms: _29  and  _30
REMARK   13  A    between atoms: _29  and  _32
REMARK   14  A    between atoms: _32  and  _33
REMARK   15  A    between atoms: _36  and  _38
REMARK   16  A    between atoms: _38  and  _39
REMARK   17  A    between atoms: _38  and  _41
REMARK   18  A    between atoms: _41  and  _42
REMARK   19  A    between atoms: _45  and  _47
REMARK   20  A    between atoms: _47  and  _48
REMARK   21  A    between atoms: _47  and  _50
REMARK   22  A    between atoms: _50  and  _51
REMARK   23  A    between atoms: _54  and  _56
REMARK   24  A    between atoms: _56  and  _57
REMARK   25  A    between atoms: _59  and  _61
REMARK   26  A    between atoms: _61  and  _62
REMARK   27  A    between atoms: _65  and  _67
REMARK   28  A    between atoms: _67  and  _68
REMARK   29  A    between atoms: _67  and  _70
REMARK   30  A    between atoms: _70  and  _71
REMARK   31  A    between atoms: _74  and  _76
REMARK   32  A    between atoms: _76  and  _77
REMARK   33  A    between atoms: _76  and  _79
REMARK   34  A    between atoms: _79  and  _80
REMARK   35  A    between atoms: _83  and  _85
REMARK   36  A    between atoms: _85  and  _86
REMARK   37  A    between atoms: _85  and  _88
REMARK   38  A    between atoms: _88  and  _89
REMARK   39  A    between atoms: _92  and  _94
REMARK   40  A    between atoms: _94  and  _95
REMARK   41  A    between atoms: _94  and  _97
REMARK   42  A    between atoms: _100  and  _102
REMARK   43  A    between atoms: _102  and  _103
REMARK   44  A    between atoms: _102  and  _105
REMARK   45  A    between atoms: _105  and  _106
REMARK   46  A    between atoms: _106  and  _107
REMARK   47  A    between atoms: _107  and  _108
REMARK   48  A    between atoms: _108  and  _109
REMARK   49  A    between atoms: _113  and  _115
REMARK   50  A    between atoms: _115  and  _116
REMARK   51  A    between atoms: _115  and  _118
REMARK   52  A    between atoms: _118  and  _119
REMARK   53  A    between atoms: _119  and  _120
REMARK   54  A    between atoms: _122  and  _124
REMARK   55  A    between atoms: _124  and  _125
REMARK   56  A    between atoms: _124  and  _127
REMARK   57  A    between atoms: _127  and  _128
REMARK   58  A    between atoms: _131  and  _133
REMARK   59  A    between atoms: _133  and  _134
REMARK   60  A    between atoms: _136  and  _138
REMARK   61  A    between atoms: _138  and  _139
REMARK   62  A    between atoms: _141  and  _143
REMARK   63  A    between atoms: _143  and  _144
REMARK   64  A    between atoms: _143  and  _146
REMARK   65  A    between atoms: _146  and  _147
REMARK   66  A    between atoms: _150  and  _152
REMARK   67  A    between atoms: _152  and  _153
REMARK   68  A    between atoms: _155  and  _157
REMARK   69  A    between atoms: _157  and  _158
REMARK   70  A    between atoms: _160  and  _162
REMARK   71  A    between atoms: _162  and  _163
REMARK   72  A    between atoms: _162  and  _165
REMARK   73  A    between atoms: _165  and  _166
REMARK   74  A    between atoms: _172  and  _174
REMARK   75  A    between atoms: _174  and  _175
REMARK   76  A    between atoms: _174  and  _177
REMARK   77  A    between atoms: _177  and  _178
REMARK   78  A    between atoms: _181  and  _183
REMARK   79  A    between atoms: _183  and  _184
REMARK   80  A    between atoms: _183  and  _186
REMARK   81  A    between atoms: _189  and  _191
REMARK   82  A    between atoms: _191  and  _192
REMARK   83  A    between atoms: _191  and  _194
REMARK   84  A    between atoms: _194  and  _195
REMARK   85  A    between atoms: _198  and  _200
REMARK   86  A    between atoms: _200  and  _201
REMARK   87  A    between atoms: _200  and  _203
REMARK   88  A    between atoms: _203  and  _204
REMARK   89  A    between atoms: _208  and  _209
REMARK   90  A    between atoms: _214  and  _216
REMARK   91  A    between atoms: _216  and  _217
REMARK   92  A    between atoms: _216  and  _219
REMARK   93  A    between atoms: _219  and  _220
REMARK   94  A    between atoms: _223  and  _225
REMARK   95  A    between atoms: _225  and  _226
REMARK   96  A    between atoms: _225  and  _228
REMARK   97  A    between atoms: _228  and  _229
REMARK   98  A    between atoms: _234  and  _236
REMARK   99  A    between atoms: _236  and  _237
REMARK  100  A    between atoms: _236  and  _239
REMARK  101  A    between atoms: _242  and  _244
REMARK  102  A    between atoms: _244  and  _245
REMARK  103  A    between atoms: _244  and  _247
REMARK  104  A    between atoms: _247  and  _248
REMARK  105  A    between atoms: _251  and  _253
REMARK  106  A    between atoms: _253  and  _254
REMARK  107  A    between atoms: _256  and  _258
REMARK  108  A    between atoms: _258  and  _259
REMARK  109  A    between atoms: _258  and  _261
REMARK  110  A    between atoms: _261  and  _262
REMARK  111  A    between atoms: _262  and  _263
REMARK  112  A    between atoms: _263  and  _264
REMARK  113  A    between atoms: _273  and  _275
REMARK  114  A    between atoms: _275  and  _276
REMARK  115  A    between atoms: _275  and  _278
REMARK  116  A    between atoms: _278  and  _279
REMARK  117  A    between atoms: _284  and  _286
REMARK  118  A    between atoms: _286  and  _287
REMARK  119  A    between atoms: _286  and  _289
REMARK  120  A    between atoms: _289  and  _290
REMARK  121  A    between atoms: _290  and  _291
REMARK  122  A    between atoms: _291  and  _292
REMARK  123  A    between atoms: _301  and  _303
REMARK  124  A    between atoms: _303  and  _304
REMARK  125  A    between atoms: _303  and  _306
REMARK  126  A    between atoms: _306  and  _307
REMARK  127  A    between atoms: _310  and  _312
REMARK  128  A    between atoms: _312  and  _313
REMARK  129  A    between atoms: _312  and  _315
REMARK  130  A    between atoms: _315  and  _316
REMARK  131  A    between atoms: _319  and  _321
REMARK  132  A    between atoms: _321  and  _322
REMARK  133  A    between atoms: _321  and  _324
REMARK  134  A    between atoms: _324  and  _325
REMARK  135  A    between atoms: _328  and  _330
REMARK  136  A    between atoms: _330  and  _331
REMARK  137  A    between atoms: _330  and  _333
REMARK  138  A    between atoms: _333  and  _334
REMARK  139  A    between atoms: _337  and  _339
REMARK  140  A    between atoms: _339  and  _340
REMARK  141  A    between atoms: _339  and  _342
REMARK  142  A    between atoms: _342  and  _343
REMARK  143  A    between atoms: _346  and  _348
REMARK  144  A    between atoms: _348  and  _349
REMARK  145  A    between atoms: _351  and  _353
REMARK  146  A    between atoms: _353  and  _354
REMARK  147  A    between atoms: _357  and  _359
REMARK  148  A    between atoms: _359  and  _360
REMARK  149  A    between atoms: _359  and  _362
REMARK  150  A    between atoms: _362  and  _363
REMARK  151  A    between atoms: _366  and  _368
REMARK  152  A    between atoms: _368  and  _369
REMARK  153  A    between atoms: _368  and  _371
REMARK  154  A    between atoms: _371  and  _372
REMARK  155  A    between atoms: _375  and  _377
REMARK  156  A    between atoms: _377  and  _378
REMARK  157  A    between atoms: _377  and  _380
REMARK  158  A    between atoms: _380  and  _381
REMARK  159  A    between atoms: _384  and  _386
REMARK  160  A    between atoms: _386  and  _387
REMARK  161  A    between atoms: _386  and  _389
REMARK  162  A    between atoms: _392  and  _394
REMARK  163  A    between atoms: _394  and  _395
REMARK  164  A    between atoms: _394  and  _397
REMARK  165  A    between atoms: _397  and  _398
REMARK  166  A    between atoms: _398  and  _399
REMARK  167  A    between atoms: _402  and  _404
REMARK  168  A    between atoms: _404  and  _405
REMARK  169  A    between atoms: _404  and  _407
REMARK  170  A    between atoms: _407  and  _408
REMARK  171  A    between atoms: _408  and  _409
REMARK  172  A    between atoms: _409  and  _410
REMARK  173  A    between atoms: _410  and  _411
REMARK  174  A    between atoms: _415  and  _417
REMARK  175  A    between atoms: _417  and  _418
REMARK  176  A    between atoms: _417  and  _420
REMARK  177  A    between atoms: _420  and  _421
REMARK  178  A    between atoms: _421  and  _422
REMARK  179  A    between atoms: _424  and  _426
REMARK  180  A    between atoms: _426  and  _427
REMARK  181  A    between atoms: _426  and  _429
REMARK  182  A    between atoms: _429  and  _430
REMARK  183  A    between atoms: _433  and  _435
REMARK  184  A    between atoms: _435  and  _436
REMARK  185  A    between atoms: _438  and  _440
REMARK  186  A    between atoms: _440  and  _441
REMARK  187  A    between atoms: _443  and  _445
REMARK  188  A    between atoms: _445  and  _446
REMARK  189  A    between atoms: _445  and  _448
REMARK  190  A    between atoms: _448  and  _449
REMARK  191  A    between atoms: _452  and  _454
REMARK  192  A    between atoms: _454  and  _455
REMARK  193  A    between atoms: _457  and  _459
REMARK  194  A    between atoms: _459  and  _460
REMARK  195  A    between atoms: _462  and  _464
REMARK  196  A    between atoms: _464  and  _465
REMARK  197  A    between atoms: _464  and  _467
REMARK  198  A    between atoms: _467  and  _468
REMARK  199  A    between atoms: _474  and  _476
REMARK  200  A    between atoms: _476  and  _477
REMARK  201  A    between atoms: _476  and  _479
REMARK  202  A    between atoms: _479  and  _480
REMARK  203  A    between atoms: _483  and  _485
REMARK  204  A    between atoms: _485  and  _486
REMARK  205  A    between atoms: _485  and  _488
REMARK  206  A    between atoms: _491  and  _493
REMARK  207  A    between atoms: _493  and  _494
REMARK  208  A    between atoms: _493  and  _496
REMARK  209  A    between atoms: _496  and  _497
REMARK  210  A    between atoms: _501  and  _502
REMARK  211  A    between atoms: _507  and  _509
REMARK  212  A    between atoms: _509  and  _510
REMARK  213  A    between atoms: _509  and  _512
REMARK  214  A    between atoms: _512  and  _513
REMARK  215  A    between atoms: _517  and  _518
REMARK  216  A    between atoms: _523  and  _525
REMARK  217  A    between atoms: _525  and  _526
REMARK  218  A    between atoms: _525  and  _528
REMARK  219  A    between atoms: _528  and  _529
REMARK  220  A    between atoms: _532  and  _534
REMARK  221  A    between atoms: _534  and  _535
REMARK  222  A    between atoms: _534  and  _537
REMARK  223  A    between atoms: _537  and  _538
REMARK  224  A    between atoms: _543  and  _545
REMARK  225  A    between atoms: _545  and  _546
REMARK  226  A    between atoms: _545  and  _548
REMARK  227  A    between atoms: _551  and  _553
REMARK  228  A    between atoms: _553  and  _554
REMARK  229  A    between atoms: _553  and  _556
REMARK  230  A    between atoms: _556  and  _557
REMARK  231  A    between atoms: _560  and  _562
REMARK  232  A    between atoms: _562  and  _563
REMARK  233  A    between atoms: _565  and  _567
REMARK  234  A    between atoms: _567  and  _568
REMARK  235  A    between atoms: _567  and  _570
REMARK  236  A    between atoms: _570  and  _571
REMARK  237  A    between atoms: _571  and  _572
REMARK  238  A    between atoms: _572  and  _573
REMARK                            x       y       z     vdW  Elec       q    Type
REMARK                         _______ _______ _______ _____ _____    ______ ____
ROOT
ATOM      1  CA  ASN A   5      10.315  22.069  -5.028  0.00  0.00    +0.158 C 
ENDROOT
BRANCH   1   2
ATOM      2  C   ASN A   5      11.322  22.945  -4.286  0.00  0.00    +0.241 C 
ATOM      3  N   VAL A   6      12.317  22.316  -3.666  0.00  0.00    -0.297 N 
ATOM      4  H   VAL A   6      12.382  21.280  -3.735  0.00  0.00    +0.150 HD
ATOM      5  O   ASN A   5      11.198  24.169  -4.276  0.00  0.00    -0.273 OA
BRANCH   3   6
ATOM      6  CA  VAL A   6      13.316  23.039  -2.894  0.00  0.00    +0.149 C 
BRANCH   6   7
ATOM      7  C   VAL A   6      14.701  22.859  -3.498  0.00  0.00    +0.241 C 
ATOM      8  O   VAL A   6      15.139  21.731  -3.747  0.00  0.00    -0.273 OA
ATOM      9  N   ILE A   7      15.381  23.973  -3.771  0.00  0.00    -0.297 N 
ATOM     10  H   ILE A   7      14.942  24.898  -3.589  0.00  0.00    +0.150 HD
BRANCH   9  11
ATOM     11  CA  ILE A   7      16.735  23.915  -4.323  0.00  0.00    +0.149 C 
BRANCH  11  12
ATOM     12  C   ILE A   7      17.697  24.137  -3.161  0.00  0.00    +0.241 C 
ATOM     13  O   ILE A   7      17.720  25.216  -2.583  0.00  0.00    -0.273 OA
ATOM     14  N   GLY A   8      18.481  23.113  -2.832  0.00  0.00    -0.295 N 
ATOM     15  H   GLY A   8      18.424  22.232  -3.382  0.00  0.00    +0.150 HD
BRANCH  14  16
ATOM     16  CA  GLY A   8      19.416  23.198  -1.721  0.00  0.00    +0.176 C 
BRANCH  16  17
ATOM     17  C   GLY A   8      20.834  23.556  -2.107  0.00  0.00    +0.243 C 
ATOM     18  N   ARG A   9      21.715  23.580  -1.108  0.00  0.00    -0.298 N 
ATOM     19  H   ARG A   9      21.407  23.318  -0.150  0.00  0.00    +0.150 HD
ATOM     20  O   GLY A   8      21.138  23.790  -3.280  0.00  0.00    -0.273 OA
BRANCH  18  21
ATOM     21  CA  ARG A   9      23.104  23.967  -1.333  0.00  0.00    +0.137 C 
BRANCH  21  22
ATOM     22  C   ARG A   9      23.896  23.152  -2.362  0.00  0.00    +0.227 C 
ATOM     23  O   ARG A   9      24.815  23.697  -2.986  0.00  0.00    -0.286 OA
ENDBRANCH  21  22
BRANCH  21  24
ATOM     24  CB  ARG A   9      23.849  23.986   0.002  0.00  0.00    +0.031 C 
BRANCH  24  25
ATOM     25  CG  ARG A   9      23.329  25.066   0.950  0.00  0.00    +0.045 C 
BRANCH  25  26
ATOM     26  CD  ARG A   9      24.194  25.230   2.195  0.00  0.00    +0.174 C 
BRANCH  26  27
ATOM     27  NE  ARG A   9      24.265  23.989   2.957  0.00  0.00    -0.265 N 
ATOM     28  HE  ARG A   9      23.467  23.757   3.582  0.00  0.00    +0.259 HD
ATOM     29  CZ  ARG A   9      25.280  23.135   2.906  0.00  0.00    +0.342 C 
ATOM     30  NH2 ARG A   9      25.224  22.006   3.595  0.00  0.00    -0.292 N 
ATOM     31 HH21 ARG A   9      24.387  21.791   4.173  0.00  0.00    +0.255 HD
ATOM     32 HH22 ARG A   9      26.017  21.334   3.558  0.00  0.00    +0.255 HD
ATOM     33  NH1 ARG A   9      26.337  23.385   2.137  0.00  0.00    -0.292 N 
ATOM     34 HH11 ARG A   9      27.127  22.710   2.104  0.00  0.00    +0.255 HD
ATOM     35 HH12 ARG A   9      26.373  24.256   1.569  0.00  0.00    +0.255 HD
ENDBRANCH  26  27
ENDBRANCH  25  26
ENDBRANCH  24  25
ENDBRANCH  21  24
ENDBRANCH  18  21
ENDBRANCH  16  17
ENDBRANCH  14  16
ENDBRANCH  11  12
BRANCH  11  36
ATOM     36  CB  ILE A   7      16.988  25.023  -5.372  0.00  0.00    +0.027 C 
ATOM     37  CG2 ILE A   7      18.413  24.901  -5.909  0.00  0.00    +0.002 C 
BRANCH  36  38
ATOM     38  CG1 ILE A   7      15.963  24.926  -6.522  0.00  0.00    +0.002 C 
ATOM     39  CD1 ILE A   7      15.869  23.550  -7.174  0.00  0.00    +0.000 C 
ENDBRANCH  36  38
ENDBRANCH  11  36
ENDBRANCH   9  11
ENDBRANCH   6   7
BRANCH   6  40
ATOM     40  CB  VAL A   6      13.334  22.535  -1.427  0.00  0.00    +0.027 C 
ATOM     41  CG2 VAL A   6      11.967  22.700  -0.801  0.00  0.00    +0.002 C 
ATOM     42  CG1 VAL A   6      13.772  21.094  -1.383  0.00  0.00    +0.002 C 
ENDBRANCH   6  40
ENDBRANCH   3   6
ENDBRANCH   1   2
BRANCH   1  45
ATOM     43  C   THR A   4       8.597  22.133  -3.315  0.00  0.00    +0.243 C 
ATOM     44  O   THR A   4       9.264  21.456  -2.531  0.00  0.00    -0.273 OA
ATOM     45  N   ASN A   5       9.003  22.447  -4.538  0.00  0.00    -0.297 N 
ATOM     46  H   ASN A   5       8.363  22.979  -5.163  0.00  0.00    +0.150 HD
BRANCH  43  47
ATOM     47  CA  THR A   4       7.212  22.641  -2.929  0.00  0.00    +0.176 C 
BRANCH  47  49
ATOM     48  C   PRO A   3       5.259  21.820  -1.779  0.00  0.00    +0.241 C 
ATOM     49  N   THR A   4       6.580  21.796  -1.929  0.00  0.00    -0.295 N 
ATOM     50  H   THR A   4       7.160  21.173  -1.332  0.00  0.00    +0.150 HD
ATOM     51  O   PRO A   3       4.530  22.545  -2.453  0.00  0.00    -0.273 OA
BRANCH  48  57
ATOM     52  C   THR A   2       6.037  18.894  -0.905  0.00  0.00    +0.246 C 
ATOM     53  N   PRO A   3       5.671  19.965  -0.179  0.00  0.00    -0.272 N 
ATOM     54  CD  PRO A   3       5.945  20.265   1.235  0.00  0.00    +0.094 C 
ATOM     55  CG  PRO A   3       5.366  21.654   1.384  0.00  0.00    +0.024 C 
ATOM     56  CB  PRO A   3       4.174  21.636   0.504  0.00  0.00    +0.031 C 
ATOM     57  CA  PRO A   3       4.675  20.892  -0.729  0.00  0.00    +0.152 C 
ATOM     58  O   THR A   2       5.544  18.657  -2.001  0.00  0.00    -0.273 OA
BRANCH  52  59
ATOM     59  CA  THR A   2       7.076  17.950  -0.307  0.00  0.00    +0.176 C 
BRANCH  59  62
ATOM     60  C   PRO A   1       7.116  15.531   0.046  0.00  0.00    +0.239 C 
ATOM     61  O   PRO A   1       7.776  15.629   1.078  0.00  0.00    -0.274 OA
ATOM     62  N   THR A   2       6.741  16.579  -0.682  0.00  0.00    -0.295 N 
ATOM     63  H   THR A   2       6.190  16.416  -1.549  0.00  0.00    +0.150 HD
BRANCH  60  68
ATOM     64  N   PRO A   1       7.757  13.321  -0.980  0.00  0.00    -0.210 NA
ATOM     65  CD  PRO A   1       7.939  12.137  -0.120  0.00  0.00    +0.089 C 
ATOM     66  CG  PRO A   1       7.209  12.542   1.142  0.00  0.00    +0.021 C 
ATOM     67  CB  PRO A   1       6.038  13.303   0.604  0.00  0.00    +0.028 C 
ATOM     68  CA  PRO A   1       6.673  14.169  -0.478  0.00  0.00    +0.149 C 
ENDBRANCH  60  68
ENDBRANCH  59  62
BRANCH  59  69
ATOM     69  CB  THR A   2       8.491  18.346  -0.814  0.00  0.00    +0.137 C 
ATOM     70  CG2 THR A   2       8.610  18.150  -2.319  0.00  0.00    +0.034 C 
BRANCH  69  71
ATOM     71  OG1 THR A   2       8.747  19.719  -0.492  0.00  0.00    -0.382 OA
ATOM     72  HG1 THR A   2       9.648  19.970  -0.815  0.00  0.00    +0.210 HD
ENDBRANCH  69  71
ENDBRANCH  59  69
ENDBRANCH  52  59
ENDBRANCH  48  57
ENDBRANCH  47  49
BRANCH  47  73
ATOM     73  CB  THR A   4       7.351  24.102  -2.438  0.00  0.00    +0.137 C 
ATOM     74  CG2 THR A   4       7.045  25.064  -3.581  0.00  0.00    +0.034 C 
BRANCH  73  75
ATOM     75  OG1 THR A   4       6.416  24.354  -1.382  0.00  0.00    -0.382 OA
ATOM     76  HG1 THR A   4       5.496  24.208  -1.716  0.00  0.00    +0.210 HD
ENDBRANCH  73  75
ENDBRANCH  47  73
ENDBRANCH  43  47
ENDBRANCH   1  45
BRANCH   1  77
ATOM     77  CB  ASN A   5      10.421  22.308  -6.539  0.00  0.00    +0.114 C 
BRANCH  77  78
ATOM     78  CG  ASN A   5       9.471  21.437  -7.341  0.00  0.00    +0.222 C 
ATOM     79  OD1 ASN A   5       9.414  20.225  -7.149  0.00  0.00    -0.275 OA
ATOM     80  ND2 ASN A   5       8.722  22.054  -8.251  0.00  0.00    -0.329 N 
ATOM     81 HD21 ASN A   5       8.803  23.083  -8.380  0.00  0.00    +0.145 HD
ATOM     82 HD22 ASN A   5       8.056  21.508  -8.833  0.00  0.00    +0.145 HD
ENDBRANCH  77  78
ENDBRANCH   1  77
TORSDOF 29
REMARK  Name = ../refined-set-2016/4a6c/4a6c_pocket.pdb
REMARK  238 active torsions:
REMARK  status: ('A' for Active; 'I' for Inactive)
REMARK    1  A    between atoms: _1  and  _3
REMARK    2  A    between atoms: _3  and  _4
REMARK    3  A    between atoms: _3  and  _6
REMARK    4  A    between atoms: _6  and  _7
REMARK    5  A    between atoms: _7  and  _8
REMARK    6  A    between atoms: _8  and  _9
REMARK    7  A    between atoms: _18  and  _20
REMARK    8  A    between atoms: _20  and  _21
REMARK    9  A    between atoms: _20  and  _23
REMARK   10  A    between atoms: _23  and  _24
REMARK   11  A    between atoms: _27  and  _29
REMARK   12  A    between atoms: _29  and  _30
REMARK   13  A    between atoms: _29  and  _32
REMARK   14  A    between atoms: _32  and  _33
REMARK   15  A    between atoms: _36  and  _38
REMARK   16  A    between atoms: _38  and  _39
REMARK   17  A    between atoms: _38  and  _41
REMARK   18  A    between atoms: _41  and  _42
REMARK   19  A    between atoms: _45  and  _47
REMARK   20  A    between atoms: _47  and  _48
REMARK   21  A    between atoms: _47  and  _50
REMARK   22  A    between atoms: _50  and  _51
REMARK   23  A    between atoms: _54  and  _56
REMARK   24  A    between atoms: _56  and  _57
REMARK   25  A    between atoms: _59  and  _61
REMARK   26  A    between atoms: _61  and  _62
REMARK   27  A    between atoms: _65  and  _67
REMARK   28  A    between atoms: _67  and  _68
REMARK   29  A    between atoms: _67  and  _70
REMARK   30  A    between atoms: _70  and  _71
REMARK   31  A    between atoms: _74  and  _76
REMARK   32  A    between atoms: _76  and  _77
REMARK   33  A    between atoms: _76  and  _79
REMARK   34  A    between atoms: _79  and  _80
REMARK   35  A    between atoms: _83  and  _85
REMARK   36  A    between atoms: _85  and  _86
REMARK   37  A    between atoms: _85  and  _88
REMARK   38  A    between atoms: _88  and  _89
REMARK   39  A    between atoms: _92  and  _94
REMARK   40  A    between atoms: _94  and  _95
REMARK   41  A    between atoms: _94  and  _97
REMARK   42  A    between atoms: _100  and  _102
REMARK   43  A    between atoms: _102  and  _103
REMARK   44  A    between atoms: _102  and  _105
REMARK   45  A    between atoms: _105  and  _106
REMARK   46  A    between atoms: _106  and  _107
REMARK   47  A    between atoms: _107  and  _108
REMARK   48  A    between atoms: _108  and  _109
REMARK   49  A    between atoms: _113  and  _115
REMARK   50  A    between atoms: _115  and  _116
REMARK   51  A    between atoms: _115  and  _118
REMARK   52  A    between atoms: _118  and  _119
REMARK   53  A    between atoms: _119  and  _120
REMARK   54  A    between atoms: _122  and  _124
REMARK   55  A    between atoms: _124  and  _125
REMARK   56  A    between atoms: _124  and  _127
REMARK   57  A    between atoms: _127  and  _128
REMARK   58  A    between atoms: _131  and  _133
REMARK   59  A    between atoms: _133  and  _134
REMARK   60  A    between atoms: _136  and  _138
REMARK   61  A    between atoms: _138  and  _139
REMARK   62  A    between atoms: _141  and  _143
REMARK   63  A    between atoms: _143  and  _144
REMARK   64  A    between atoms: _143  and  _146
REMARK   65  A    between atoms: _146  and  _147
REMARK   66  A    between atoms: _150  and  _152
REMARK   67  A    between atoms: _152  and  _153
REMARK   68  A    between atoms: _155  and  _157
REMARK   69  A    between atoms: _157  and  _158
REMARK   70  A    between atoms: _160  and  _162
REMARK   71  A    between atoms: _162  and  _163
REMARK   72  A    between atoms: _162  and  _165
REMARK   73  A    between atoms: _165  and  _166
REMARK   74  A    between atoms: _172  and  _174
REMARK   75  A    between atoms: _174  and  _175
REMARK   76  A    between atoms: _174  and  _177
REMARK   77  A    between atoms: _177  and  _178
REMARK   78  A    between atoms: _181  and  _183
REMARK   79  A    between atoms: _183  and  _184
REMARK   80  A    between atoms: _183  and  _186
REMARK   81  A    between atoms: _189  and  _191
REMARK   82  A    between atoms: _191  and  _192
REMARK   83  A    between atoms: _191  and  _194
REMARK   84  A    between atoms: _194  and  _195
REMARK   85  A    between atoms: _198  and  _200
REMARK   86  A    between atoms: _200  and  _201
REMARK   87  A    between atoms: _200  and  _203
REMARK   88  A    between atoms: _203  and  _204
REMARK   89  A    between atoms: _208  and  _209
REMARK   90  A    between atoms: _214  and  _216
REMARK   91  A    between atoms: _216  and  _217
REMARK   92  A    between atoms: _216  and  _219
REMARK   93  A    between atoms: _219  and  _220
REMARK   94  A    between atoms: _223  and  _225
REMARK   95  A    between atoms: _225  and  _226
REMARK   96  A    between atoms: _225  and  _228
REMARK   97  A    between atoms: _228  and  _229
REMARK   98  A    between atoms: _234  and  _236
REMARK   99  A    between atoms: _236  and  _237
REMARK  100  A    between atoms: _236  and  _239
REMARK  101  A    between atoms: _242  and  _244
REMARK  102  A    between atoms: _244  and  _245
REMARK  103  A    between atoms: _244  and  _247
REMARK  104  A    between atoms: _247  and  _248
REMARK  105  A    between atoms: _251  and  _253
REMARK  106  A    between atoms: _253  and  _254
REMARK  107  A    between atoms: _256  and  _258
REMARK  108  A    between atoms: _258  and  _259
REMARK  109  A    between atoms: _258  and  _261
REMARK  110  A    between atoms: _261  and  _262
REMARK  111  A    between atoms: _262  and  _263
REMARK  112  A    between atoms: _263  and  _264
REMARK  113  A    between atoms: _273  and  _275
REMARK  114  A    between atoms: _275  and  _276
REMARK  115  A    between atoms: _275  and  _278
REMARK  116  A    between atoms: _278  and  _279
REMARK  117  A    between atoms: _284  and  _286
REMARK  118  A    between atoms: _286  and  _287
REMARK  119  A    between atoms: _286  and  _289
REMARK  120  A    between atoms: _289  and  _290
REMARK  121  A    between atoms: _290  and  _291
REMARK  122  A    between atoms: _291  and  _292
REMARK  123  A    between atoms: _301  and  _303
REMARK  124  A    between atoms: _303  and  _304
REMARK  125  A    between atoms: _303  and  _306
REMARK  126  A    between atoms: _306  and  _307
REMARK  127  A    between atoms: _310  and  _312
REMARK  128  A    between atoms: _312  and  _313
REMARK  129  A    between atoms: _312  and  _315
REMARK  130  A    between atoms: _315  and  _316
REMARK  131  A    between atoms: _319  and  _321
REMARK  132  A    between atoms: _321  and  _322
REMARK  133  A    between atoms: _321  and  _324
REMARK  134  A    between atoms: _324  and  _325
REMARK  135  A    between atoms: _328  and  _330
REMARK  136  A    between atoms: _330  and  _331
REMARK  137  A    between atoms: _330  and  _333
REMARK  138  A    between atoms: _333  and  _334
REMARK  139  A    between atoms: _337  and  _339
REMARK  140  A    between atoms: _339  and  _340
REMARK  141  A    between atoms: _339  and  _342
REMARK  142  A    between atoms: _342  and  _343
REMARK  143  A    between atoms: _346  and  _348
REMARK  144  A    between atoms: _348  and  _349
REMARK  145  A    between atoms: _351  and  _353
REMARK  146  A    between atoms: _353  and  _354
REMARK  147  A    between atoms: _357  and  _359
REMARK  148  A    between atoms: _359  and  _360
REMARK  149  A    between atoms: _359  and  _362
REMARK  150  A    between atoms: _362  and  _363
REMARK  151  A    between atoms: _366  and  _368
REMARK  152  A    between atoms: _368  and  _369
REMARK  153  A    between atoms: _368  and  _371
REMARK  154  A    between atoms: _371  and  _372
REMARK  155  A    between atoms: _375  and  _377
REMARK  156  A    between atoms: _377  and  _378
REMARK  157  A    between atoms: _377  and  _380
REMARK  158  A    between atoms: _380  and  _381
REMARK  159  A    between atoms: _384  and  _386
REMARK  160  A    between atoms: _386  and  _387
REMARK  161  A    between atoms: _386  and  _389
REMARK  162  A    between atoms: _392  and  _394
REMARK  163  A    between atoms: _394  and  _395
REMARK  164  A    between atoms: _394  and  _397
REMARK  165  A    between atoms: _397  and  _398
REMARK  166  A    between atoms: _398  and  _399
REMARK  167  A    between atoms: _402  and  _404
REMARK  168  A    between atoms: _404  and  _405
REMARK  169  A    between atoms: _404  and  _407
REMARK  170  A    between atoms: _407  and  _408
REMARK  171  A    between atoms: _408  and  _409
REMARK  172  A    between atoms: _409  and  _410
REMARK  173  A    between atoms: _410  and  _411
REMARK  174  A    between atoms: _415  and  _417
REMARK  175  A    between atoms: _417  and  _418
REMARK  176  A    between atoms: _417  and  _420
REMARK  177  A    between atoms: _420  and  _421
REMARK  178  A    between atoms: _421  and  _422
REMARK  179  A    between atoms: _424  and  _426
REMARK  180  A    between atoms: _426  and  _427
REMARK  181  A    between atoms: _426  and  _429
REMARK  182  A    between atoms: _429  and  _430
REMARK  183  A    between atoms: _433  and  _435
REMARK  184  A    between atoms: _435  and  _436
REMARK  185  A    between atoms: _438  and  _440
REMARK  186  A    between atoms: _440  and  _441
REMARK  187  A    between atoms: _443  and  _445
REMARK  188  A    between atoms: _445  and  _446
REMARK  189  A    between atoms: _445  and  _448
REMARK  190  A    between atoms: _448  and  _449
REMARK  191  A    between atoms: _452  and  _454
REMARK  192  A    between atoms: _454  and  _455
REMARK  193  A    between atoms: _457  and  _459
REMARK  194  A    between atoms: _459  and  _460
REMARK  195  A    between atoms: _462  and  _464
REMARK  196  A    between atoms: _464  and  _465
REMARK  197  A    between atoms: _464  and  _467
REMARK  198  A    between atoms: _467  and  _468
REMARK  199  A    between atoms: _474  and  _476
REMARK  200  A    between atoms: _476  and  _477
REMARK  201  A    between atoms: _476  and  _479
REMARK  202  A    between atoms: _479  and  _480
REMARK  203  A    between atoms: _483  and  _485
REMARK  204  A    between atoms: _485  and  _486
REMARK  205  A    between atoms: _485  and  _488
REMARK  206  A    between atoms: _491  and  _493
REMARK  207  A    between atoms: _493  and  _494
REMARK  208  A    between atoms: _493  and  _496
REMARK  209  A    between atoms: _496  and  _497
REMARK  210  A    between atoms: _501  and  _502
REMARK  211  A    between atoms: _507  and  _509
REMARK  212  A    between atoms: _509  and  _510
REMARK  213  A    between atoms: _509  and  _512
REMARK  214  A    between atoms: _512  and  _513
REMARK  215  A    between atoms: _517  and  _518
REMARK  216  A    between atoms: _523  and  _525
REMARK  217  A    between atoms: _525  and  _526
REMARK  218  A    between atoms: _525  and  _528
REMARK  219  A    between atoms: _528  and  _529
REMARK  220  A    between atoms: _532  and  _534
REMARK  221  A    between atoms: _534  and  _535
REMARK  222  A    between atoms: _534  and  _537
REMARK  223  A    between atoms: _537  and  _538
REMARK  224  A    between atoms: _543  and  _545
REMARK  225  A    between atoms: _545  and  _546
REMARK  226  A    between atoms: _545  and  _548
REMARK  227  A    between atoms: _551  and  _553
REMARK  228  A    between atoms: _553  and  _554
REMARK  229  A    between atoms: _553  and  _556
REMARK  230  A    between atoms: _556  and  _557
REMARK  231  A    between atoms: _560  and  _562
REMARK  232  A    between atoms: _562  and  _563
REMARK  233  A    between atoms: _565  and  _567
REMARK  234  A    between atoms: _567  and  _568
REMARK  235  A    between atoms: _567  and  _570
REMARK  236  A    between atoms: _570  and  _571
REMARK  237  A    between atoms: _571  and  _572
REMARK  238  A    between atoms: _572  and  _573
REMARK                            x       y       z     vdW  Elec       q    Type
REMARK                         _______ _______ _______ _____ _____    ______ ____
ROOT
ATOM      1  O   HOH     1      21.583  19.299  10.632  0.00  0.00    +0.000 OA
ENDROOT
TORSDOF 0
REMARK  Name = ../refined-set-2016/4a6c/4a6c_pocket.pdb
REMARK  238 active torsions:
REMARK  status: ('A' for Active; 'I' for Inactive)
REMARK    1  A    between atoms: _1  and  _3
REMARK    2  A    between atoms: _3  and  _4
REMARK    3  A    between atoms: _3  and  _6
REMARK    4  A    between atoms: _6  and  _7
REMARK    5  A    between atoms: _7  and  _8
REMARK    6  A    between atoms: _8  and  _9
REMARK    7  A    between atoms: _18  and  _20
REMARK    8  A    between atoms: _20  and  _21
REMARK    9  A    between atoms: _20  and  _23
REMARK   10  A    between atoms: _23  and  _24
REMARK   11  A    between atoms: _27  and  _29
REMARK   12  A    between atoms: _29  and  _30
REMARK   13  A    between atoms: _29  and  _32
REMARK   14  A    between atoms: _32  and  _33
REMARK   15  A    between atoms: _36  and  _38
REMARK   16  A    between atoms: _38  and  _39
REMARK   17  A    between atoms: _38  and  _41
REMARK   18  A    between atoms: _41  and  _42
REMARK   19  A    between atoms: _45  and  _47
REMARK   20  A    between atoms: _47  and  _48
REMARK   21  A    between atoms: _47  and  _50
REMARK   22  A    between atoms: _50  and  _51
REMARK   23  A    between atoms: _54  and  _56
REMARK   24  A    between atoms: _56  and  _57
REMARK   25  A    between atoms: _59  and  _61
REMARK   26  A    between atoms: _61  and  _62
REMARK   27  A    between atoms: _65  and  _67
REMARK   28  A    between atoms: _67  and  _68
REMARK   29  A    between atoms: _67  and  _70
REMARK   30  A    between atoms: _70  and  _71
REMARK   31  A    between atoms: _74  and  _76
REMARK   32  A    between atoms: _76  and  _77
REMARK   33  A    between atoms: _76  and  _79
REMARK   34  A    between atoms: _79  and  _80
REMARK   35  A    between atoms: _83  and  _85
REMARK   36  A    between atoms: _85  and  _86
REMARK   37  A    between atoms: _85  and  _88
REMARK   38  A    between atoms: _88  and  _89
REMARK   39  A    between atoms: _92  and  _94
REMARK   40  A    between atoms: _94  and  _95
REMARK   41  A    between atoms: _94  and  _97
REMARK   42  A    between atoms: _100  and  _102
REMARK   43  A    between atoms: _102  and  _103
REMARK   44  A    between atoms: _102  and  _105
REMARK   45  A    between atoms: _105  and  _106
REMARK   46  A    between atoms: _106  and  _107
REMARK   47  A    between atoms: _107  and  _108
REMARK   48  A    between atoms: _108  and  _109
REMARK   49  A    between atoms: _113  and  _115
REMARK   50  A    between atoms: _115  and  _116
REMARK   51  A    between atoms: _115  and  _118
REMARK   52  A    between atoms: _118  and  _119
REMARK   53  A    between atoms: _119  and  _120
REMARK   54  A    between atoms: _122  and  _124
REMARK   55  A    between atoms: _124  and  _125
REMARK   56  A    between atoms: _124  and  _127
REMARK   57  A    between atoms: _127  and  _128
REMARK   58  A    between atoms: _131  and  _133
REMARK   59  A    between atoms: _133  and  _134
REMARK   60  A    between atoms: _136  and  _138
REMARK   61  A    between atoms: _138  and  _139
REMARK   62  A    between atoms: _141  and  _143
REMARK   63  A    between atoms: _143  and  _144
REMARK   64  A    between atoms: _143  and  _146
REMARK   65  A    between atoms: _146  and  _147
REMARK   66  A    between atoms: _150  and  _152
REMARK   67  A    between atoms: _152  and  _153
REMARK   68  A    between atoms: _155  and  _157
REMARK   69  A    between atoms: _157  and  _158
REMARK   70  A    between atoms: _160  and  _162
REMARK   71  A    between atoms: _162  and  _163
REMARK   72  A    between atoms: _162  and  _165
REMARK   73  A    between atoms: _165  and  _166
REMARK   74  A    between atoms: _172  and  _174
REMARK   75  A    between atoms: _174  and  _175
REMARK   76  A    between atoms: _174  and  _177
REMARK   77  A    between atoms: _177  and  _178
REMARK   78  A    between atoms: _181  and  _183
REMARK   79  A    between atoms: _183  and  _184
REMARK   80  A    between atoms: _183  and  _186
REMARK   81  A    between atoms: _189  and  _191
REMARK   82  A    between atoms: _191  and  _192
REMARK   83  A    between atoms: _191  and  _194
REMARK   84  A    between atoms: _194  and  _195
REMARK   85  A    between atoms: _198  and  _200
REMARK   86  A    between atoms: _200  and  _201
REMARK   87  A    between atoms: _200  and  _203
REMARK   88  A    between atoms: _203  and  _204
REMARK   89  A    between atoms: _208  and  _209
REMARK   90  A    between atoms: _214  and  _216
REMARK   91  A    between atoms: _216  and  _217
REMARK   92  A    between atoms: _216  and  _219
REMARK   93  A    between atoms: _219  and  _220
REMARK   94  A    between atoms: _223  and  _225
REMARK   95  A    between atoms: _225  and  _226
REMARK   96  A    between atoms: _225  and  _228
REMARK   97  A    between atoms: _228  and  _229
REMARK   98  A    between atoms: _234  and  _236
REMARK   99  A    between atoms: _236  and  _237
REMARK  100  A    between atoms: _236  and  _239
REMARK  101  A    between atoms: _242  and  _244
REMARK  102  A    between atoms: _244  and  _245
REMARK  103  A    between atoms: _244  and  _247
REMARK  104  A    between atoms: _247  and  _248
REMARK  105  A    between atoms: _251  and  _253
REMARK  106  A    between atoms: _253  and  _254
REMARK  107  A    between atoms: _256  and  _258
REMARK  108  A    between atoms: _258  and  _259
REMARK  109  A    between atoms: _258  and  _261
REMARK  110  A    between atoms: _261  and  _262
REMARK  111  A    between atoms: _262  and  _263
REMARK  112  A    between atoms: _263  and  _264
REMARK  113  A    between atoms: _273  and  _275
REMARK  114  A    between atoms: _275  and  _276
REMARK  115  A    between atoms: _275  and  _278
REMARK  116  A    between atoms: _278  and  _279
REMARK  117  A    between atoms: _284  and  _286
REMARK  118  A    between atoms: _286  and  _287
REMARK  119  A    between atoms: _286  and  _289
REMARK  120  A    between atoms: _289  and  _290
REMARK  121  A    between atoms: _290  and  _291
REMARK  122  A    between atoms: _291  and  _292
REMARK  123  A    between atoms: _301  and  _303
REMARK  124  A    between atoms: _303  and  _304
REMARK  125  A    between atoms: _303  and  _306
REMARK  126  A    between atoms: _306  and  _307
REMARK  127  A    between atoms: _310  and  _312
REMARK  128  A    between atoms: _312  and  _313
REMARK  129  A    between atoms: _312  and  _315
REMARK  130  A    between atoms: _315  and  _316
REMARK  131  A    between atoms: _319  and  _321
REMARK  132  A    between atoms: _321  and  _322
REMARK  133  A    between atoms: _321  and  _324
REMARK  134  A    between atoms: _324  and  _325
REMARK  135  A    between atoms: _328  and  _330
REMARK  136  A    between atoms: _330  and  _331
REMARK  137  A    between atoms: _330  and  _333
REMARK  138  A    between atoms: _333  and  _334
REMARK  139  A    between atoms: _337  and  _339
REMARK  140  A    between atoms: _339  and  _340
REMARK  141  A    between atoms: _339  and  _342
REMARK  142  A    between atoms: _342  and  _343
REMARK  143  A    between atoms: _346  and  _348
REMARK  144  A    between atoms: _348  and  _349
REMARK  145  A    between atoms: _351  and  _353
REMARK  146  A    between atoms: _353  and  _354
REMARK  147  A    between atoms: _357  and  _359
REMARK  148  A    between atoms: _359  and  _360
REMARK  149  A    between atoms: _359  and  _362
REMARK  150  A    between atoms: _362  and  _363
REMARK  151  A    between atoms: _366  and  _368
REMARK  152  A    between atoms: _368  and  _369
REMARK  153  A    between atoms: _368  and  _371
REMARK  154  A    between atoms: _371  and  _372
REMARK  155  A    between atoms: _375  and  _377
REMARK  156  A    between atoms: _377  and  _378
REMARK  157  A    between atoms: _377  and  _380
REMARK  158  A    between atoms: _380  and  _381
REMARK  159  A    between atoms: _384  and  _386
REMARK  160  A    between atoms: _386  and  _387
REMARK  161  A    between atoms: _386  and  _389
REMARK  162  A    between atoms: _392  and  _394
REMARK  163  A    between atoms: _394  and  _395
REMARK  164  A    between atoms: _394  and  _397
REMARK  165  A    between atoms: _397  and  _398
REMARK  166  A    between atoms: _398  and  _399
REMARK  167  A    between atoms: _402  and  _404
REMARK  168  A    between atoms: _404  and  _405
REMARK  169  A    between atoms: _404  and  _407
REMARK  170  A    between atoms: _407  and  _408
REMARK  171  A    between atoms: _408  and  _409
REMARK  172  A    between atoms: _409  and  _410
REMARK  173  A    between atoms: _410  and  _411
REMARK  174  A    between atoms: _415  and  _417
REMARK  175  A    between atoms: _417  and  _418
REMARK  176  A    between atoms: _417  and  _420
REMARK  177  A    between atoms: _420  and  _421
REMARK  178  A    between atoms: _421  and  _422
REMARK  179  A    between atoms: _424  and  _426
REMARK  180  A    between atoms: _426  and  _427
REMARK  181  A    between atoms: _426  and  _429
REMARK  182  A    between atoms: _429  and  _430
REMARK  183  A    between atoms: _433  and  _435
REMARK  184  A    between atoms: _435  and  _436
REMARK  185  A    between atoms: _438  and  _440
REMARK  186  A    between atoms: _440  and  _441
REMARK  187  A    between atoms: _443  and  _445
REMARK  188  A    between atoms: _445  and  _446
REMARK  189  A    between atoms: _445  and  _448
REMARK  190  A    between atoms: _448  and  _449
REMARK  191  A    between atoms: _452  and  _454
REMARK  192  A    between atoms: _454  and  _455
REMARK  193  A    between atoms: _457  and  _459
REMARK  194  A    between atoms: _459  and  _460
REMARK  195  A    between atoms: _462  and  _464
REMARK  196  A    between atoms: _464  and  _465
REMARK  197  A    between atoms: _464  and  _467
REMARK  198  A    between atoms: _467  and  _468
REMARK  199  A    between atoms: _474  and  _476
REMARK  200  A    between atoms: _476  and  _477
REMARK  201  A    between atoms: _476  and  _479
REMARK  202  A    between atoms: _479  and  _480
REMARK  203  A    between atoms: _483  and  _485
REMARK  204  A    between atoms: _485  and  _486
REMARK  205  A    between atoms: _485  and  _488
REMARK  206  A    between atoms: _491  and  _493
REMARK  207  A    between atoms: _493  and  _494
REMARK  208  A    between atoms: _493  and  _496
REMARK  209  A    between atoms: _496  and  _497
REMARK  210  A    between atoms: _501  and  _502
REMARK  211  A    between atoms: _507  and  _509
REMARK  212  A    between atoms: _509  and  _510
REMARK  213  A    between atoms: _509  and  _512
REMARK  214  A    between atoms: _512  and  _513
REMARK  215  A    between atoms: _517  and  _518
REMARK  216  A    between atoms: _523  and  _525
REMARK  217  A    between atoms: _525  and  _526
REMARK  218  A    between atoms: _525  and  _528
REMARK  219  A    between atoms: _528  and  _529
REMARK  220  A    between atoms: _532  and  _534
REMARK  221  A    between atoms: _534  and  _535
REMARK  222  A    between atoms: _534  and  _537
REMARK  223  A    between atoms: _537  and  _538
REMARK  224  A    between atoms: _543  and  _545
REMARK  225  A    between atoms: _545  and  _546
REMARK  226  A    between atoms: _545  and  _548
REMARK  227  A    between atoms: _551  and  _553
REMARK  228  A    between atoms: _553  and  _554
REMARK  229  A    between atoms: _553  and  _556
REMARK  230  A    between atoms: _556  and  _557
REMARK  231  A    between atoms: _560  and  _562
REMARK  232  A    between atoms: _562  and  _563
REMARK  233  A    between atoms: _565  and  _567
REMARK  234  A    between atoms: _567  and  _568
REMARK  235  A    between atoms: _567  and  _570
REMARK  236  A    between atoms: _570  and  _571
REMARK  237  A    between atoms: _571  and  _572
REMARK  238  A    between atoms: _572  and  _573
REMARK                            x       y       z     vdW  Elec       q    Type
REMARK                         _______ _______ _______ _____ _____    ______ ____
ROOT
ATOM      1  O   HOH     1      10.978  31.517   1.825  0.00  0.00    +0.000 OA
ENDROOT
TORSDOF 0
REMARK  Name = ../refined-set-2016/4a6c/4a6c_pocket.pdb
REMARK  238 active torsions:
REMARK  status: ('A' for Active; 'I' for Inactive)
REMARK    1  A    between atoms: _1  and  _3
REMARK    2  A    between atoms: _3  and  _4
REMARK    3  A    between atoms: _3  and  _6
REMARK    4  A    between atoms: _6  and  _7
REMARK    5  A    between atoms: _7  and  _8
REMARK    6  A    between atoms: _8  and  _9
REMARK    7  A    between atoms: _18  and  _20
REMARK    8  A    between atoms: _20  and  _21
REMARK    9  A    between atoms: _20  and  _23
REMARK   10  A    between atoms: _23  and  _24
REMARK   11  A    between atoms: _27  and  _29
REMARK   12  A    between atoms: _29  and  _30
REMARK   13  A    between atoms: _29  and  _32
REMARK   14  A    between atoms: _32  and  _33
REMARK   15  A    between atoms: _36  and  _38
REMARK   16  A    between atoms: _38  and  _39
REMARK   17  A    between atoms: _38  and  _41
REMARK   18  A    between atoms: _41  and  _42
REMARK   19  A    between atoms: _45  and  _47
REMARK   20  A    between atoms: _47  and  _48
REMARK   21  A    between atoms: _47  and  _50
REMARK   22  A    between atoms: _50  and  _51
REMARK   23  A    between atoms: _54  and  _56
REMARK   24  A    between atoms: _56  and  _57
REMARK   25  A    between atoms: _59  and  _61
REMARK   26  A    between atoms: _61  and  _62
REMARK   27  A    between atoms: _65  and  _67
REMARK   28  A    between atoms: _67  and  _68
REMARK   29  A    between atoms: _67  and  _70
REMARK   30  A    between atoms: _70  and  _71
REMARK   31  A    between atoms: _74  and  _76
REMARK   32  A    between atoms: _76  and  _77
REMARK   33  A    between atoms: _76  and  _79
REMARK   34  A    between atoms: _79  and  _80
REMARK   35  A    between atoms: _83  and  _85
REMARK   36  A    between atoms: _85  and  _86
REMARK   37  A    between atoms: _85  and  _88
REMARK   38  A    between atoms: _88  and  _89
REMARK   39  A    between atoms: _92  and  _94
REMARK   40  A    between atoms: _94  and  _95
REMARK   41  A    between atoms: _94  and  _97
REMARK   42  A    between atoms: _100  and  _102
REMARK   43  A    between atoms: _102  and  _103
REMARK   44  A    between atoms: _102  and  _105
REMARK   45  A    between atoms: _105  and  _106
REMARK   46  A    between atoms: _106  and  _107
REMARK   47  A    between atoms: _107  and  _108
REMARK   48  A    between atoms: _108  and  _109
REMARK   49  A    between atoms: _113  and  _115
REMARK   50  A    between atoms: _115  and  _116
REMARK   51  A    between atoms: _115  and  _118
REMARK   52  A    between atoms: _118  and  _119
REMARK   53  A    between atoms: _119  and  _120
REMARK   54  A    between atoms: _122  and  _124
REMARK   55  A    between atoms: _124  and  _125
REMARK   56  A    between atoms: _124  and  _127
REMARK   57  A    between atoms: _127  and  _128
REMARK   58  A    between atoms: _131  and  _133
REMARK   59  A    between atoms: _133  and  _134
REMARK   60  A    between atoms: _136  and  _138
REMARK   61  A    between atoms: _138  and  _139
REMARK   62  A    between atoms: _141  and  _143
REMARK   63  A    between atoms: _143  and  _144
REMARK   64  A    between atoms: _143  and  _146
REMARK   65  A    between atoms: _146  and  _147
REMARK   66  A    between atoms: _150  and  _152
REMARK   67  A    between atoms: _152  and  _153
REMARK   68  A    between atoms: _155  and  _157
REMARK   69  A    between atoms: _157  and  _158
REMARK   70  A    between atoms: _160  and  _162
REMARK   71  A    between atoms: _162  and  _163
REMARK   72  A    between atoms: _162  and  _165
REMARK   73  A    between atoms: _165  and  _166
REMARK   74  A    between atoms: _172  and  _174
REMARK   75  A    between atoms: _174  and  _175
REMARK   76  A    between atoms: _174  and  _177
REMARK   77  A    between atoms: _177  and  _178
REMARK   78  A    between atoms: _181  and  _183
REMARK   79  A    between atoms: _183  and  _184
REMARK   80  A    between atoms: _183  and  _186
REMARK   81  A    between atoms: _189  and  _191
REMARK   82  A    between atoms: _191  and  _192
REMARK   83  A    between atoms: _191  and  _194
REMARK   84  A    between atoms: _194  and  _195
REMARK   85  A    between atoms: _198  and  _200
REMARK   86  A    between atoms: _200  and  _201
REMARK   87  A    between atoms: _200  and  _203
REMARK   88  A    between atoms: _203  and  _204
REMARK   89  A    between atoms: _208  and  _209
REMARK   90  A    between atoms: _214  and  _216
REMARK   91  A    between atoms: _216  and  _217
REMARK   92  A    between atoms: _216  and  _219
REMARK   93  A    between atoms: _219  and  _220
REMARK   94  A    between atoms: _223  and  _225
REMARK   95  A    between atoms: _225  and  _226
REMARK   96  A    between atoms: _225  and  _228
REMARK   97  A    between atoms: _228  and  _229
REMARK   98  A    between atoms: _234  and  _236
REMARK   99  A    between atoms: _236  and  _237
REMARK  100  A    between atoms: _236  and  _239
REMARK  101  A    between atoms: _242  and  _244
REMARK  102  A    between atoms: _244  and  _245
REMARK  103  A    between atoms: _244  and  _247
REMARK  104  A    between atoms: _247  and  _248
REMARK  105  A    between atoms: _251  and  _253
REMARK  106  A    between atoms: _253  and  _254
REMARK  107  A    between atoms: _256  and  _258
REMARK  108  A    between atoms: _258  and  _259
REMARK  109  A    between atoms: _258  and  _261
REMARK  110  A    between atoms: _261  and  _262
REMARK  111  A    between atoms: _262  and  _263
REMARK  112  A    between atoms: _263  and  _264
REMARK  113  A    between atoms: _273  and  _275
REMARK  114  A    between atoms: _275  and  _276
REMARK  115  A    between atoms: _275  and  _278
REMARK  116  A    between atoms: _278  and  _279
REMARK  117  A    between atoms: _284  and  _286
REMARK  118  A    between atoms: _286  and  _287
REMARK  119  A    between atoms: _286  and  _289
REMARK  120  A    between atoms: _289  and  _290
REMARK  121  A    between atoms: _290  and  _291
REMARK  122  A    between atoms: _291  and  _292
REMARK  123  A    between atoms: _301  and  _303
REMARK  124  A    between atoms: _303  and  _304
REMARK  125  A    between atoms: _303  and  _306
REMARK  126  A    between atoms: _306  and  _307
REMARK  127  A    between atoms: _310  and  _312
REMARK  128  A    between atoms: _312  and  _313
REMARK  129  A    between atoms: _312  and  _315
REMARK  130  A    between atoms: _315  and  _316
REMARK  131  A    between atoms: _319  and  _321
REMARK  132  A    between atoms: _321  and  _322
REMARK  133  A    between atoms: _321  and  _324
REMARK  134  A    between atoms: _324  and  _325
REMARK  135  A    between atoms: _328  and  _330
REMARK  136  A    between atoms: _330  and  _331
REMARK  137  A    between atoms: _330  and  _333
REMARK  138  A    between atoms: _333  and  _334
REMARK  139  A    between atoms: _337  and  _339
REMARK  140  A    between atoms: _339  and  _340
REMARK  141  A    between atoms: _339  and  _342
REMARK  142  A    between atoms: _342  and  _343
REMARK  143  A    between atoms: _346  and  _348
REMARK  144  A    between atoms: _348  and  _349
REMARK  145  A    between atoms: _351  and  _353
REMARK  146  A    between atoms: _353  and  _354
REMARK  147  A    between atoms: _357  and  _359
REMARK  148  A    between atoms: _359  and  _360
REMARK  149  A    between atoms: _359  and  _362
REMARK  150  A    between atoms: _362  and  _363
REMARK  151  A    between atoms: _366  and  _368
REMARK  152  A    between atoms: _368  and  _369
REMARK  153  A    between atoms: _368  and  _371
REMARK  154  A    between atoms: _371  and  _372
REMARK  155  A    between atoms: _375  and  _377
REMARK  156  A    between atoms: _377  and  _378
REMARK  157  A    between atoms: _377  and  _380
REMARK  158  A    between atoms: _380  and  _381
REMARK  159  A    between atoms: _384  and  _386
REMARK  160  A    between atoms: _386  and  _387
REMARK  161  A    between atoms: _386  and  _389
REMARK  162  A    between atoms: _392  and  _394
REMARK  163  A    between atoms: _394  and  _395
REMARK  164  A    between atoms: _394  and  _397
REMARK  165  A    between atoms: _397  and  _398
REMARK  166  A    between atoms: _398  and  _399
REMARK  167  A    between atoms: _402  and  _404
REMARK  168  A    between atoms: _404  and  _405
REMARK  169  A    between atoms: _404  and  _407
REMARK  170  A    between atoms: _407  and  _408
REMARK  171  A    between atoms: _408  and  _409
REMARK  172  A    between atoms: _409  and  _410
REMARK  173  A    between atoms: _410  and  _411
REMARK  174  A    between atoms: _415  and  _417
REMARK  175  A    between atoms: _417  and  _418
REMARK  176  A    between atoms: _417  and  _420
REMARK  177  A    between atoms: _420  and  _421
REMARK  178  A    between atoms: _421  and  _422
REMARK  179  A    between atoms: _424  and  _426
REMARK  180  A    between atoms: _426  and  _427
REMARK  181  A    between atoms: _426  and  _429
REMARK  182  A    between atoms: _429  and  _430
REMARK  183  A    between atoms: _433  and  _435
REMARK  184  A    between atoms: _435  and  _436
REMARK  185  A    between atoms: _438  and  _440
REMARK  186  A    between atoms: _440  and  _441
REMARK  187  A    between atoms: _443  and  _445
REMARK  188  A    between atoms: _445  and  _446
REMARK  189  A    between atoms: _445  and  _448
REMARK  190  A    between atoms: _448  and  _449
REMARK  191  A    between atoms: _452  and  _454
REMARK  192  A    between atoms: _454  and  _455
REMARK  193  A    between atoms: _457  and  _459
REMARK  194  A    between atoms: _459  and  _460
REMARK  195  A    between atoms: _462  and  _464
REMARK  196  A    between atoms: _464  and  _465
REMARK  197  A    between atoms: _464  and  _467
REMARK  198  A    between atoms: _467  and  _468
REMARK  199  A    between atoms: _474  and  _476
REMARK  200  A    between atoms: _476  and  _477
REMARK  201  A    between atoms: _476  and  _479
REMARK  202  A    between atoms: _479  and  _480
REMARK  203  A    between atoms: _483  and  _485
REMARK  204  A    between atoms: _485  and  _486
REMARK  205  A    between atoms: _485  and  _488
REMARK  206  A    between atoms: _491  and  _493
REMARK  207  A    between atoms: _493  and  _494
REMARK  208  A    between atoms: _493  and  _496
REMARK  209  A    between atoms: _496  and  _497
REMARK  210  A    between atoms: _501  and  _502
REMARK  211  A    between atoms: _507  and  _509
REMARK  212  A    between atoms: _509  and  _510
REMARK  213  A    between atoms: _509  and  _512
REMARK  214  A    between atoms: _512  and  _513
REMARK  215  A    between atoms: _517  and  _518
REMARK  216  A    between atoms: _523  and  _525
REMARK  217  A    between atoms: _525  and  _526
REMARK  218  A    between atoms: _525  and  _528
REMARK  219  A    between atoms: _528  and  _529
REMARK  220  A    between atoms: _532  and  _534
REMARK  221  A    between atoms: _534  and  _535
REMARK  222  A    between atoms: _534  and  _537
REMARK  223  A    between atoms: _537  and  _538
REMARK  224  A    between atoms: _543  and  _545
REMARK  225  A    between atoms: _545  and  _546
REMARK  226  A    between atoms: _545  and  _548
REMARK  227  A    between atoms: _551  and  _553
REMARK  228  A    between atoms: _553  and  _554
REMARK  229  A    between atoms: _553  and  _556
REMARK  230  A    between atoms: _556  and  _557
REMARK  231  A    between atoms: _560  and  _562
REMARK  232  A    between atoms: _562  and  _563
REMARK  233  A    between atoms: _565  and  _567
REMARK  234  A    between atoms: _567  and  _568
REMARK  235  A    between atoms: _567  and  _570
REMARK  236  A    between atoms: _570  and  _571
REMARK  237  A    between atoms: _571  and  _572
REMARK  238  A    between atoms: _572  and  _573
REMARK                            x       y       z     vdW  Elec       q    Type
REMARK                         _______ _______ _______ _____ _____    ______ ____
ROOT
ATOM      1  O   HOH     1       8.361  29.214   4.737  0.00  0.00    +0.000 OA
ENDROOT
TORSDOF 0
REMARK  Name = ../refined-set-2016/4a6c/4a6c_pocket.pdb
REMARK  238 active torsions:
REMARK  status: ('A' for Active; 'I' for Inactive)
REMARK    1  A    between atoms: _1  and  _3
REMARK    2  A    between atoms: _3  and  _4
REMARK    3  A    between atoms: _3  and  _6
REMARK    4  A    between atoms: _6  and  _7
REMARK    5  A    between atoms: _7  and  _8
REMARK    6  A    between atoms: _8  and  _9
REMARK    7  A    between atoms: _18  and  _20
REMARK    8  A    between atoms: _20  and  _21
REMARK    9  A    between atoms: _20  and  _23
REMARK   10  A    between atoms: _23  and  _24
REMARK   11  A    between atoms: _27  and  _29
REMARK   12  A    between atoms: _29  and  _30
REMARK   13  A    between atoms: _29  and  _32
REMARK   14  A    between atoms: _32  and  _33
REMARK   15  A    between atoms: _36  and  _38
REMARK   16  A    between atoms: _38  and  _39
REMARK   17  A    between atoms: _38  and  _41
REMARK   18  A    between atoms: _41  and  _42
REMARK   19  A    between atoms: _45  and  _47
REMARK   20  A    between atoms: _47  and  _48
REMARK   21  A    between atoms: _47  and  _50
REMARK   22  A    between atoms: _50  and  _51
REMARK   23  A    between atoms: _54  and  _56
REMARK   24  A    between atoms: _56  and  _57
REMARK   25  A    between atoms: _59  and  _61
REMARK   26  A    between atoms: _61  and  _62
REMARK   27  A    between atoms: _65  and  _67
REMARK   28  A    between atoms: _67  and  _68
REMARK   29  A    between atoms: _67  and  _70
REMARK   30  A    between atoms: _70  and  _71
REMARK   31  A    between atoms: _74  and  _76
REMARK   32  A    between atoms: _76  and  _77
REMARK   33  A    between atoms: _76  and  _79
REMARK   34  A    between atoms: _79  and  _80
REMARK   35  A    between atoms: _83  and  _85
REMARK   36  A    between atoms: _85  and  _86
REMARK   37  A    between atoms: _85  and  _88
REMARK   38  A    between atoms: _88  and  _89
REMARK   39  A    between atoms: _92  and  _94
REMARK   40  A    between atoms: _94  and  _95
REMARK   41  A    between atoms: _94  and  _97
REMARK   42  A    between atoms: _100  and  _102
REMARK   43  A    between atoms: _102  and  _103
REMARK   44  A    between atoms: _102  and  _105
REMARK   45  A    between atoms: _105  and  _106
REMARK   46  A    between atoms: _106  and  _107
REMARK   47  A    between atoms: _107  and  _108
REMARK   48  A    between atoms: _108  and  _109
REMARK   49  A    between atoms: _113  and  _115
REMARK   50  A    between atoms: _115  and  _116
REMARK   51  A    between atoms: _115  and  _118
REMARK   52  A    between atoms: _118  and  _119
REMARK   53  A    between atoms: _119  and  _120
REMARK   54  A    between atoms: _122  and  _124
REMARK   55  A    between atoms: _124  and  _125
REMARK   56  A    between atoms: _124  and  _127
REMARK   57  A    between atoms: _127  and  _128
REMARK   58  A    between atoms: _131  and  _133
REMARK   59  A    between atoms: _133  and  _134
REMARK   60  A    between atoms: _136  and  _138
REMARK   61  A    between atoms: _138  and  _139
REMARK   62  A    between atoms: _141  and  _143
REMARK   63  A    between atoms: _143  and  _144
REMARK   64  A    between atoms: _143  and  _146
REMARK   65  A    between atoms: _146  and  _147
REMARK   66  A    between atoms: _150  and  _152
REMARK   67  A    between atoms: _152  and  _153
REMARK   68  A    between atoms: _155  and  _157
REMARK   69  A    between atoms: _157  and  _158
REMARK   70  A    between atoms: _160  and  _162
REMARK   71  A    between atoms: _162  and  _163
REMARK   72  A    between atoms: _162  and  _165
REMARK   73  A    between atoms: _165  and  _166
REMARK   74  A    between atoms: _172  and  _174
REMARK   75  A    between atoms: _174  and  _175
REMARK   76  A    between atoms: _174  and  _177
REMARK   77  A    between atoms: _177  and  _178
REMARK   78  A    between atoms: _181  and  _183
REMARK   79  A    between atoms: _183  and  _184
REMARK   80  A    between atoms: _183  and  _186
REMARK   81  A    between atoms: _189  and  _191
REMARK   82  A    between atoms: _191  and  _192
REMARK   83  A    between atoms: _191  and  _194
REMARK   84  A    between atoms: _194  and  _195
REMARK   85  A    between atoms: _198  and  _200
REMARK   86  A    between atoms: _200  and  _201
REMARK   87  A    between atoms: _200  and  _203
REMARK   88  A    between atoms: _203  and  _204
REMARK   89  A    between atoms: _208  and  _209
REMARK   90  A    between atoms: _214  and  _216
REMARK   91  A    between atoms: _216  and  _217
REMARK   92  A    between atoms: _216  and  _219
REMARK   93  A    between atoms: _219  and  _220
REMARK   94  A    between atoms: _223  and  _225
REMARK   95  A    between atoms: _225  and  _226
REMARK   96  A    between atoms: _225  and  _228
REMARK   97  A    between atoms: _228  and  _229
REMARK   98  A    between atoms: _234  and  _236
REMARK   99  A    between atoms: _236  and  _237
REMARK  100  A    between atoms: _236  and  _239
REMARK  101  A    between atoms: _242  and  _244
REMARK  102  A    between atoms: _244  and  _245
REMARK  103  A    between atoms: _244  and  _247
REMARK  104  A    between atoms: _247  and  _248
REMARK  105  A    between atoms: _251  and  _253
REMARK  106  A    between atoms: _253  and  _254
REMARK  107  A    between atoms: _256  and  _258
REMARK  108  A    between atoms: _258  and  _259
REMARK  109  A    between atoms: _258  and  _261
REMARK  110  A    between atoms: _261  and  _262
REMARK  111  A    between atoms: _262  and  _263
REMARK  112  A    between atoms: _263  and  _264
REMARK  113  A    between atoms: _273  and  _275
REMARK  114  A    between atoms: _275  and  _276
REMARK  115  A    between atoms: _275  and  _278
REMARK  116  A    between atoms: _278  and  _279
REMARK  117  A    between atoms: _284  and  _286
REMARK  118  A    between atoms: _286  and  _287
REMARK  119  A    between atoms: _286  and  _289
REMARK  120  A    between atoms: _289  and  _290
REMARK  121  A    between atoms: _290  and  _291
REMARK  122  A    between atoms: _291  and  _292
REMARK  123  A    between atoms: _301  and  _303
REMARK  124  A    between atoms: _303  and  _304
REMARK  125  A    between atoms: _303  and  _306
REMARK  126  A    between atoms: _306  and  _307
REMARK  127  A    between atoms: _310  and  _312
REMARK  128  A    between atoms: _312  and  _313
REMARK  129  A    between atoms: _312  and  _315
REMARK  130  A    between atoms: _315  and  _316
REMARK  131  A    between atoms: _319  and  _321
REMARK  132  A    between atoms: _321  and  _322
REMARK  133  A    between atoms: _321  and  _324
REMARK  134  A    between atoms: _324  and  _325
REMARK  135  A    between atoms: _328  and  _330
REMARK  136  A    between atoms: _330  and  _331
REMARK  137  A    between atoms: _330  and  _333
REMARK  138  A    between atoms: _333  and  _334
REMARK  139  A    between atoms: _337  and  _339
REMARK  140  A    between atoms: _339  and  _340
REMARK  141  A    between atoms: _339  and  _342
REMARK  142  A    between atoms: _342  and  _343
REMARK  143  A    between atoms: _346  and  _348
REMARK  144  A    between atoms: _348  and  _349
REMARK  145  A    between atoms: _351  and  _353
REMARK  146  A    between atoms: _353  and  _354
REMARK  147  A    between atoms: _357  and  _359
REMARK  148  A    between atoms: _359  and  _360
REMARK  149  A    between atoms: _359  and  _362
REMARK  150  A    between atoms: _362  and  _363
REMARK  151  A    between atoms: _366  and  _368
REMARK  152  A    between atoms: _368  and  _369
REMARK  153  A    between atoms: _368  and  _371
REMARK  154  A    between atoms: _371  and  _372
REMARK  155  A    between atoms: _375  and  _377
REMARK  156  A    between atoms: _377  and  _378
REMARK  157  A    between atoms: _377  and  _380
REMARK  158  A    between atoms: _380  and  _381
REMARK  159  A    between atoms: _384  and  _386
REMARK  160  A    between atoms: _386  and  _387
REMARK  161  A    between atoms: _386  and  _389
REMARK  162  A    between atoms: _392  and  _394
REMARK  163  A    between atoms: _394  and  _395
REMARK  164  A    between atoms: _394  and  _397
REMARK  165  A    between atoms: _397  and  _398
REMARK  166  A    between atoms: _398  and  _399
REMARK  167  A    between atoms: _402  and  _404
REMARK  168  A    between atoms: _404  and  _405
REMARK  169  A    between atoms: _404  and  _407
REMARK  170  A    between atoms: _407  and  _408
REMARK  171  A    between atoms: _408  and  _409
REMARK  172  A    between atoms: _409  and  _410
REMARK  173  A    between atoms: _410  and  _411
REMARK  174  A    between atoms: _415  and  _417
REMARK  175  A    between atoms: _417  and  _418
REMARK  176  A    between atoms: _417  and  _420
REMARK  177  A    between atoms: _420  and  _421
REMARK  178  A    between atoms: _421  and  _422
REMARK  179  A    between atoms: _424  and  _426
REMARK  180  A    between atoms: _426  and  _427
REMARK  181  A    between atoms: _426  and  _429
REMARK  182  A    between atoms: _429  and  _430
REMARK  183  A    between atoms: _433  and  _435
REMARK  184  A    between atoms: _435  and  _436
REMARK  185  A    between atoms: _438  and  _440
REMARK  186  A    between atoms: _440  and  _441
REMARK  187  A    between atoms: _443  and  _445
REMARK  188  A    between atoms: _445  and  _446
REMARK  189  A    between atoms: _445  and  _448
REMARK  190  A    between atoms: _448  and  _449
REMARK  191  A    between atoms: _452  and  _454
REMARK  192  A    between atoms: _454  and  _455
REMARK  193  A    between atoms: _457  and  _459
REMARK  194  A    between atoms: _459  and  _460
REMARK  195  A    between atoms: _462  and  _464
REMARK  196  A    between atoms: _464  and  _465
REMARK  197  A    between atoms: _464  and  _467
REMARK  198  A    between atoms: _467  and  _468
REMARK  199  A    between atoms: _474  and  _476
REMARK  200  A    between atoms: _476  and  _477
REMARK  201  A    between atoms: _476  and  _479
REMARK  202  A    between atoms: _479  and  _480
REMARK  203  A    between atoms: _483  and  _485
REMARK  204  A    between atoms: _485  and  _486
REMARK  205  A    between atoms: _485  and  _488
REMARK  206  A    between atoms: _491  and  _493
REMARK  207  A    between atoms: _493  and  _494
REMARK  208  A    between atoms: _493  and  _496
REMARK  209  A    between atoms: _496  and  _497
REMARK  210  A    between atoms: _501  and  _502
REMARK  211  A    between atoms: _507  and  _509
REMARK  212  A    between atoms: _509  and  _510
REMARK  213  A    between atoms: _509  and  _512
REMARK  214  A    between atoms: _512  and  _513
REMARK  215  A    between atoms: _517  and  _518
REMARK  216  A    between atoms: _523  and  _525
REMARK  217  A    between atoms: _525  and  _526
REMARK  218  A    between atoms: _525  and  _528
REMARK  219  A    between atoms: _528  and  _529
REMARK  220  A    between atoms: _532  and  _534
REMARK  221  A    between atoms: _534  and  _535
REMARK  222  A    between atoms: _534  and  _537
REMARK  223  A    between atoms: _537  and  _538
REMARK  224  A    between atoms: _543  and  _545
REMARK  225  A    between atoms: _545  and  _546
REMARK  226  A    between atoms: _545  and  _548
REMARK  227  A    between atoms: _551  and  _553
REMARK  228  A    between atoms: _553  and  _554
REMARK  229  A    between atoms: _553  and  _556
REMARK  230  A    between atoms: _556  and  _557
REMARK  231  A    between atoms: _560  and  _562
REMARK  232  A    between atoms: _562  and  _563
REMARK  233  A    between atoms: _565  and  _567
REMARK  234  A    between atoms: _567  and  _568
REMARK  235  A    between atoms: _567  and  _570
REMARK  236  A    between atoms: _570  and  _571
REMARK  237  A    between atoms: _571  and  _572
REMARK  238  A    between atoms: _572  and  _573
REMARK                            x       y       z     vdW  Elec       q    Type
REMARK                         _______ _______ _______ _____ _____    ______ ____
ROOT
ATOM      1  O   HOH     1       8.850  29.549   1.961  0.00  0.00    +0.000 OA
ENDROOT
TORSDOF 0
REMARK  Name = ../refined-set-2016/4a6c/4a6c_pocket.pdb
REMARK  238 active torsions:
REMARK  status: ('A' for Active; 'I' for Inactive)
REMARK    1  A    between atoms: _1  and  _3
REMARK    2  A    between atoms: _3  and  _4
REMARK    3  A    between atoms: _3  and  _6
REMARK    4  A    between atoms: _6  and  _7
REMARK    5  A    between atoms: _7  and  _8
REMARK    6  A    between atoms: _8  and  _9
REMARK    7  A    between atoms: _18  and  _20
REMARK    8  A    between atoms: _20  and  _21
REMARK    9  A    between atoms: _20  and  _23
REMARK   10  A    between atoms: _23  and  _24
REMARK   11  A    between atoms: _27  and  _29
REMARK   12  A    between atoms: _29  and  _30
REMARK   13  A    between atoms: _29  and  _32
REMARK   14  A    between atoms: _32  and  _33
REMARK   15  A    between atoms: _36  and  _38
REMARK   16  A    between atoms: _38  and  _39
REMARK   17  A    between atoms: _38  and  _41
REMARK   18  A    between atoms: _41  and  _42
REMARK   19  A    between atoms: _45  and  _47
REMARK   20  A    between atoms: _47  and  _48
REMARK   21  A    between atoms: _47  and  _50
REMARK   22  A    between atoms: _50  and  _51
REMARK   23  A    between atoms: _54  and  _56
REMARK   24  A    between atoms: _56  and  _57
REMARK   25  A    between atoms: _59  and  _61
REMARK   26  A    between atoms: _61  and  _62
REMARK   27  A    between atoms: _65  and  _67
REMARK   28  A    between atoms: _67  and  _68
REMARK   29  A    between atoms: _67  and  _70
REMARK   30  A    between atoms: _70  and  _71
REMARK   31  A    between atoms: _74  and  _76
REMARK   32  A    between atoms: _76  and  _77
REMARK   33  A    between atoms: _76  and  _79
REMARK   34  A    between atoms: _79  and  _80
REMARK   35  A    between atoms: _83  and  _85
REMARK   36  A    between atoms: _85  and  _86
REMARK   37  A    between atoms: _85  and  _88
REMARK   38  A    between atoms: _88  and  _89
REMARK   39  A    between atoms: _92  and  _94
REMARK   40  A    between atoms: _94  and  _95
REMARK   41  A    between atoms: _94  and  _97
REMARK   42  A    between atoms: _100  and  _102
REMARK   43  A    between atoms: _102  and  _103
REMARK   44  A    between atoms: _102  and  _105
REMARK   45  A    between atoms: _105  and  _106
REMARK   46  A    between atoms: _106  and  _107
REMARK   47  A    between atoms: _107  and  _108
REMARK   48  A    between atoms: _108  and  _109
REMARK   49  A    between atoms: _113  and  _115
REMARK   50  A    between atoms: _115  and  _116
REMARK   51  A    between atoms: _115  and  _118
REMARK   52  A    between atoms: _118  and  _119
REMARK   53  A    between atoms: _119  and  _120
REMARK   54  A    between atoms: _122  and  _124
REMARK   55  A    between atoms: _124  and  _125
REMARK   56  A    between atoms: _124  and  _127
REMARK   57  A    between atoms: _127  and  _128
REMARK   58  A    between atoms: _131  and  _133
REMARK   59  A    between atoms: _133  and  _134
REMARK   60  A    between atoms: _136  and  _138
REMARK   61  A    between atoms: _138  and  _139
REMARK   62  A    between atoms: _141  and  _143
REMARK   63  A    between atoms: _143  and  _144
REMARK   64  A    between atoms: _143  and  _146
REMARK   65  A    between atoms: _146  and  _147
REMARK   66  A    between atoms: _150  and  _152
REMARK   67  A    between atoms: _152  and  _153
REMARK   68  A    between atoms: _155  and  _157
REMARK   69  A    between atoms: _157  and  _158
REMARK   70  A    between atoms: _160  and  _162
REMARK   71  A    between atoms: _162  and  _163
REMARK   72  A    between atoms: _162  and  _165
REMARK   73  A    between atoms: _165  and  _166
REMARK   74  A    between atoms: _172  and  _174
REMARK   75  A    between atoms: _174  and  _175
REMARK   76  A    between atoms: _174  and  _177
REMARK   77  A    between atoms: _177  and  _178
REMARK   78  A    between atoms: _181  and  _183
REMARK   79  A    between atoms: _183  and  _184
REMARK   80  A    between atoms: _183  and  _186
REMARK   81  A    between atoms: _189  and  _191
REMARK   82  A    between atoms: _191  and  _192
REMARK   83  A    between atoms: _191  and  _194
REMARK   84  A    between atoms: _194  and  _195
REMARK   85  A    between atoms: _198  and  _200
REMARK   86  A    between atoms: _200  and  _201
REMARK   87  A    between atoms: _200  and  _203
REMARK   88  A    between atoms: _203  and  _204
REMARK   89  A    between atoms: _208  and  _209
REMARK   90  A    between atoms: _214  and  _216
REMARK   91  A    between atoms: _216  and  _217
REMARK   92  A    between atoms: _216  and  _219
REMARK   93  A    between atoms: _219  and  _220
REMARK   94  A    between atoms: _223  and  _225
REMARK   95  A    between atoms: _225  and  _226
REMARK   96  A    between atoms: _225  and  _228
REMARK   97  A    between atoms: _228  and  _229
REMARK   98  A    between atoms: _234  and  _236
REMARK   99  A    between atoms: _236  and  _237
REMARK  100  A    between atoms: _236  and  _239
REMARK  101  A    between atoms: _242  and  _244
REMARK  102  A    between atoms: _244  and  _245
REMARK  103  A    between atoms: _244  and  _247
REMARK  104  A    between atoms: _247  and  _248
REMARK  105  A    between atoms: _251  and  _253
REMARK  106  A    between atoms: _253  and  _254
REMARK  107  A    between atoms: _256  and  _258
REMARK  108  A    between atoms: _258  and  _259
REMARK  109  A    between atoms: _258  and  _261
REMARK  110  A    between atoms: _261  and  _262
REMARK  111  A    between atoms: _262  and  _263
REMARK  112  A    between atoms: _263  and  _264
REMARK  113  A    between atoms: _273  and  _275
REMARK  114  A    between atoms: _275  and  _276
REMARK  115  A    between atoms: _275  and  _278
REMARK  116  A    between atoms: _278  and  _279
REMARK  117  A    between atoms: _284  and  _286
REMARK  118  A    between atoms: _286  and  _287
REMARK  119  A    between atoms: _286  and  _289
REMARK  120  A    between atoms: _289  and  _290
REMARK  121  A    between atoms: _290  and  _291
REMARK  122  A    between atoms: _291  and  _292
REMARK  123  A    between atoms: _301  and  _303
REMARK  124  A    between atoms: _303  and  _304
REMARK  125  A    between atoms: _303  and  _306
REMARK  126  A    between atoms: _306  and  _307
REMARK  127  A    between atoms: _310  and  _312
REMARK  128  A    between atoms: _312  and  _313
REMARK  129  A    between atoms: _312  and  _315
REMARK  130  A    between atoms: _315  and  _316
REMARK  131  A    between atoms: _319  and  _321
REMARK  132  A    between atoms: _321  and  _322
REMARK  133  A    between atoms: _321  and  _324
REMARK  134  A    between atoms: _324  and  _325
REMARK  135  A    between atoms: _328  and  _330
REMARK  136  A    between atoms: _330  and  _331
REMARK  137  A    between atoms: _330  and  _333
REMARK  138  A    between atoms: _333  and  _334
REMARK  139  A    between atoms: _337  and  _339
REMARK  140  A    between atoms: _339  and  _340
REMARK  141  A    between atoms: _339  and  _342
REMARK  142  A    between atoms: _342  and  _343
REMARK  143  A    between atoms: _346  and  _348
REMARK  144  A    between atoms: _348  and  _349
REMARK  145  A    between atoms: _351  and  _353
REMARK  146  A    between atoms: _353  and  _354
REMARK  147  A    between atoms: _357  and  _359
REMARK  148  A    between atoms: _359  and  _360
REMARK  149  A    between atoms: _359  and  _362
REMARK  150  A    between atoms: _362  and  _363
REMARK  151  A    between atoms: _366  and  _368
REMARK  152  A    between atoms: _368  and  _369
REMARK  153  A    between atoms: _368  and  _371
REMARK  154  A    between atoms: _371  and  _372
REMARK  155  A    between atoms: _375  and  _377
REMARK  156  A    between atoms: _377  and  _378
REMARK  157  A    between atoms: _377  and  _380
REMARK  158  A    between atoms: _380  and  _381
REMARK  159  A    between atoms: _384  and  _386
REMARK  160  A    between atoms: _386  and  _387
REMARK  161  A    between atoms: _386  and  _389
REMARK  162  A    between atoms: _392  and  _394
REMARK  163  A    between atoms: _394  and  _395
REMARK  164  A    between atoms: _394  and  _397
REMARK  165  A    between atoms: _397  and  _398
REMARK  166  A    between atoms: _398  and  _399
REMARK  167  A    between atoms: _402  and  _404
REMARK  168  A    between atoms: _404  and  _405
REMARK  169  A    between atoms: _404  and  _407
REMARK  170  A    between atoms: _407  and  _408
REMARK  171  A    between atoms: _408  and  _409
REMARK  172  A    between atoms: _409  and  _410
REMARK  173  A    between atoms: _410  and  _411
REMARK  174  A    between atoms: _415  and  _417
REMARK  175  A    between atoms: _417  and  _418
REMARK  176  A    between atoms: _417  and  _420
REMARK  177  A    between atoms: _420  and  _421
REMARK  178  A    between atoms: _421  and  _422
REMARK  179  A    between atoms: _424  and  _426
REMARK  180  A    between atoms: _426  and  _427
REMARK  181  A    between atoms: _426  and  _429
REMARK  182  A    between atoms: _429  and  _430
REMARK  183  A    between atoms: _433  and  _435
REMARK  184  A    between atoms: _435  and  _436
REMARK  185  A    between atoms: _438  and  _440
REMARK  186  A    between atoms: _440  and  _441
REMARK  187  A    between atoms: _443  and  _445
REMARK  188  A    between atoms: _445  and  _446
REMARK  189  A    between atoms: _445  and  _448
REMARK  190  A    between atoms: _448  and  _449
REMARK  191  A    between atoms: _452  and  _454
REMARK  192  A    between atoms: _454  and  _455
REMARK  193  A    between atoms: _457  and  _459
REMARK  194  A    between atoms: _459  and  _460
REMARK  195  A    between atoms: _462  and  _464
REMARK  196  A    between atoms: _464  and  _465
REMARK  197  A    between atoms: _464  and  _467
REMARK  198  A    between atoms: _467  and  _468
REMARK  199  A    between atoms: _474  and  _476
REMARK  200  A    between atoms: _476  and  _477
REMARK  201  A    between atoms: _476  and  _479
REMARK  202  A    between atoms: _479  and  _480
REMARK  203  A    between atoms: _483  and  _485
REMARK  204  A    between atoms: _485  and  _486
REMARK  205  A    between atoms: _485  and  _488
REMARK  206  A    between atoms: _491  and  _493
REMARK  207  A    between atoms: _493  and  _494
REMARK  208  A    between atoms: _493  and  _496
REMARK  209  A    between atoms: _496  and  _497
REMARK  210  A    between atoms: _501  and  _502
REMARK  211  A    between atoms: _507  and  _509
REMARK  212  A    between atoms: _509  and  _510
REMARK  213  A    between atoms: _509  and  _512
REMARK  214  A    between atoms: _512  and  _513
REMARK  215  A    between atoms: _517  and  _518
REMARK  216  A    between atoms: _523  and  _525
REMARK  217  A    between atoms: _525  and  _526
REMARK  218  A    between atoms: _525  and  _528
REMARK  219  A    between atoms: _528  and  _529
REMARK  220  A    between atoms: _532  and  _534
REMARK  221  A    between atoms: _534  and  _535
REMARK  222  A    between atoms: _534  and  _537
REMARK  223  A    between atoms: _537  and  _538
REMARK  224  A    between atoms: _543  and  _545
REMARK  225  A    between atoms: _545  and  _546
REMARK  226  A    between atoms: _545  and  _548
REMARK  227  A    between atoms: _551  and  _553
REMARK  228  A    between atoms: _553  and  _554
REMARK  229  A    between atoms: _553  and  _556
REMARK  230  A    between atoms: _556  and  _557
REMARK  231  A    between atoms: _560  and  _562
REMARK  232  A    between atoms: _562  and  _563
REMARK  233  A    between atoms: _565  and  _567
REMARK  234  A    between atoms: _567  and  _568
REMARK  235  A    between atoms: _567  and  _570
REMARK  236  A    between atoms: _570  and  _571
REMARK  237  A    between atoms: _571  and  _572
REMARK  238  A    between atoms: _572  and  _573
REMARK                            x       y       z     vdW  Elec       q    Type
REMARK                         _______ _______ _______ _____ _____    ______ ____
ROOT
ATOM      1  O   HOH     1       4.436  31.002   6.897  0.00  0.00    +0.000 OA
ENDROOT
TORSDOF 0
REMARK  Name = ../refined-set-2016/4a6c/4a6c_pocket.pdb
REMARK  238 active torsions:
REMARK  status: ('A' for Active; 'I' for Inactive)
REMARK    1  A    between atoms: _1  and  _3
REMARK    2  A    between atoms: _3  and  _4
REMARK    3  A    between atoms: _3  and  _6
REMARK    4  A    between atoms: _6  and  _7
REMARK    5  A    between atoms: _7  and  _8
REMARK    6  A    between atoms: _8  and  _9
REMARK    7  A    between atoms: _18  and  _20
REMARK    8  A    between atoms: _20  and  _21
REMARK    9  A    between atoms: _20  and  _23
REMARK   10  A    between atoms: _23  and  _24
REMARK   11  A    between atoms: _27  and  _29
REMARK   12  A    between atoms: _29  and  _30
REMARK   13  A    between atoms: _29  and  _32
REMARK   14  A    between atoms: _32  and  _33
REMARK   15  A    between atoms: _36  and  _38
REMARK   16  A    between atoms: _38  and  _39
REMARK   17  A    between atoms: _38  and  _41
REMARK   18  A    between atoms: _41  and  _42
REMARK   19  A    between atoms: _45  and  _47
REMARK   20  A    between atoms: _47  and  _48
REMARK   21  A    between atoms: _47  and  _50
REMARK   22  A    between atoms: _50  and  _51
REMARK   23  A    between atoms: _54  and  _56
REMARK   24  A    between atoms: _56  and  _57
REMARK   25  A    between atoms: _59  and  _61
REMARK   26  A    between atoms: _61  and  _62
REMARK   27  A    between atoms: _65  and  _67
REMARK   28  A    between atoms: _67  and  _68
REMARK   29  A    between atoms: _67  and  _70
REMARK   30  A    between atoms: _70  and  _71
REMARK   31  A    between atoms: _74  and  _76
REMARK   32  A    between atoms: _76  and  _77
REMARK   33  A    between atoms: _76  and  _79
REMARK   34  A    between atoms: _79  and  _80
REMARK   35  A    between atoms: _83  and  _85
REMARK   36  A    between atoms: _85  and  _86
REMARK   37  A    between atoms: _85  and  _88
REMARK   38  A    between atoms: _88  and  _89
REMARK   39  A    between atoms: _92  and  _94
REMARK   40  A    between atoms: _94  and  _95
REMARK   41  A    between atoms: _94  and  _97
REMARK   42  A    between atoms: _100  and  _102
REMARK   43  A    between atoms: _102  and  _103
REMARK   44  A    between atoms: _102  and  _105
REMARK   45  A    between atoms: _105  and  _106
REMARK   46  A    between atoms: _106  and  _107
REMARK   47  A    between atoms: _107  and  _108
REMARK   48  A    between atoms: _108  and  _109
REMARK   49  A    between atoms: _113  and  _115
REMARK   50  A    between atoms: _115  and  _116
REMARK   51  A    between atoms: _115  and  _118
REMARK   52  A    between atoms: _118  and  _119
REMARK   53  A    between atoms: _119  and  _120
REMARK   54  A    between atoms: _122  and  _124
REMARK   55  A    between atoms: _124  and  _125
REMARK   56  A    between atoms: _124  and  _127
REMARK   57  A    between atoms: _127  and  _128
REMARK   58  A    between atoms: _131  and  _133
REMARK   59  A    between atoms: _133  and  _134
REMARK   60  A    between atoms: _136  and  _138
REMARK   61  A    between atoms: _138  and  _139
REMARK   62  A    between atoms: _141  and  _143
REMARK   63  A    between atoms: _143  and  _144
REMARK   64  A    between atoms: _143  and  _146
REMARK   65  A    between atoms: _146  and  _147
REMARK   66  A    between atoms: _150  and  _152
REMARK   67  A    between atoms: _152  and  _153
REMARK   68  A    between atoms: _155  and  _157
REMARK   69  A    between atoms: _157  and  _158
REMARK   70  A    between atoms: _160  and  _162
REMARK   71  A    between atoms: _162  and  _163
REMARK   72  A    between atoms: _162  and  _165
REMARK   73  A    between atoms: _165  and  _166
REMARK   74  A    between atoms: _172  and  _174
REMARK   75  A    between atoms: _174  and  _175
REMARK   76  A    between atoms: _174  and  _177
REMARK   77  A    between atoms: _177  and  _178
REMARK   78  A    between atoms: _181  and  _183
REMARK   79  A    between atoms: _183  and  _184
REMARK   80  A    between atoms: _183  and  _186
REMARK   81  A    between atoms: _189  and  _191
REMARK   82  A    between atoms: _191  and  _192
REMARK   83  A    between atoms: _191  and  _194
REMARK   84  A    between atoms: _194  and  _195
REMARK   85  A    between atoms: _198  and  _200
REMARK   86  A    between atoms: _200  and  _201
REMARK   87  A    between atoms: _200  and  _203
REMARK   88  A    between atoms: _203  and  _204
REMARK   89  A    between atoms: _208  and  _209
REMARK   90  A    between atoms: _214  and  _216
REMARK   91  A    between atoms: _216  and  _217
REMARK   92  A    between atoms: _216  and  _219
REMARK   93  A    between atoms: _219  and  _220
REMARK   94  A    between atoms: _223  and  _225
REMARK   95  A    between atoms: _225  and  _226
REMARK   96  A    between atoms: _225  and  _228
REMARK   97  A    between atoms: _228  and  _229
REMARK   98  A    between atoms: _234  and  _236
REMARK   99  A    between atoms: _236  and  _237
REMARK  100  A    between atoms: _236  and  _239
REMARK  101  A    between atoms: _242  and  _244
REMARK  102  A    between atoms: _244  and  _245
REMARK  103  A    between atoms: _244  and  _247
REMARK  104  A    between atoms: _247  and  _248
REMARK  105  A    between atoms: _251  and  _253
REMARK  106  A    between atoms: _253  and  _254
REMARK  107  A    between atoms: _256  and  _258
REMARK  108  A    between atoms: _258  and  _259
REMARK  109  A    between atoms: _258  and  _261
REMARK  110  A    between atoms: _261  and  _262
REMARK  111  A    between atoms: _262  and  _263
REMARK  112  A    between atoms: _263  and  _264
REMARK  113  A    between atoms: _273  and  _275
REMARK  114  A    between atoms: _275  and  _276
REMARK  115  A    between atoms: _275  and  _278
REMARK  116  A    between atoms: _278  and  _279
REMARK  117  A    between atoms: _284  and  _286
REMARK  118  A    between atoms: _286  and  _287
REMARK  119  A    between atoms: _286  and  _289
REMARK  120  A    between atoms: _289  and  _290
REMARK  121  A    between atoms: _290  and  _291
REMARK  122  A    between atoms: _291  and  _292
REMARK  123  A    between atoms: _301  and  _303
REMARK  124  A    between atoms: _303  and  _304
REMARK  125  A    between atoms: _303  and  _306
REMARK  126  A    between atoms: _306  and  _307
REMARK  127  A    between atoms: _310  and  _312
REMARK  128  A    between atoms: _312  and  _313
REMARK  129  A    between atoms: _312  and  _315
REMARK  130  A    between atoms: _315  and  _316
REMARK  131  A    between atoms: _319  and  _321
REMARK  132  A    between atoms: _321  and  _322
REMARK  133  A    between atoms: _321  and  _324
REMARK  134  A    between atoms: _324  and  _325
REMARK  135  A    between atoms: _328  and  _330
REMARK  136  A    between atoms: _330  and  _331
REMARK  137  A    between atoms: _330  and  _333
REMARK  138  A    between atoms: _333  and  _334
REMARK  139  A    between atoms: _337  and  _339
REMARK  140  A    between atoms: _339  and  _340
REMARK  141  A    between atoms: _339  and  _342
REMARK  142  A    between atoms: _342  and  _343
REMARK  143  A    between atoms: _346  and  _348
REMARK  144  A    between atoms: _348  and  _349
REMARK  145  A    between atoms: _351  and  _353
REMARK  146  A    between atoms: _353  and  _354
REMARK  147  A    between atoms: _357  and  _359
REMARK  148  A    between atoms: _359  and  _360
REMARK  149  A    between atoms: _359  and  _362
REMARK  150  A    between atoms: _362  and  _363
REMARK  151  A    between atoms: _366  and  _368
REMARK  152  A    between atoms: _368  and  _369
REMARK  153  A    between atoms: _368  and  _371
REMARK  154  A    between atoms: _371  and  _372
REMARK  155  A    between atoms: _375  and  _377
REMARK  156  A    between atoms: _377  and  _378
REMARK  157  A    between atoms: _377  and  _380
REMARK  158  A    between atoms: _380  and  _381
REMARK  159  A    between atoms: _384  and  _386
REMARK  160  A    between atoms: _386  and  _387
REMARK  161  A    between atoms: _386  and  _389
REMARK  162  A    between atoms: _392  and  _394
REMARK  163  A    between atoms: _394  and  _395
REMARK  164  A    between atoms: _394  and  _397
REMARK  165  A    between atoms: _397  and  _398
REMARK  166  A    between atoms: _398  and  _399
REMARK  167  A    between atoms: _402  and  _404
REMARK  168  A    between atoms: _404  and  _405
REMARK  169  A    between atoms: _404  and  _407
REMARK  170  A    between atoms: _407  and  _408
REMARK  171  A    between atoms: _408  and  _409
REMARK  172  A    between atoms: _409  and  _410
REMARK  173  A    between atoms: _410  and  _411
REMARK  174  A    between atoms: _415  and  _417
REMARK  175  A    between atoms: _417  and  _418
REMARK  176  A    between atoms: _417  and  _420
REMARK  177  A    between atoms: _420  and  _421
REMARK  178  A    between atoms: _421  and  _422
REMARK  179  A    between atoms: _424  and  _426
REMARK  180  A    between atoms: _426  and  _427
REMARK  181  A    between atoms: _426  and  _429
REMARK  182  A    between atoms: _429  and  _430
REMARK  183  A    between atoms: _433  and  _435
REMARK  184  A    between atoms: _435  and  _436
REMARK  185  A    between atoms: _438  and  _440
REMARK  186  A    between atoms: _440  and  _441
REMARK  187  A    between atoms: _443  and  _445
REMARK  188  A    between atoms: _445  and  _446
REMARK  189  A    between atoms: _445  and  _448
REMARK  190  A    between atoms: _448  and  _449
REMARK  191  A    between atoms: _452  and  _454
REMARK  192  A    between atoms: _454  and  _455
REMARK  193  A    between atoms: _457  and  _459
REMARK  194  A    between atoms: _459  and  _460
REMARK  195  A    between atoms: _462  and  _464
REMARK  196  A    between atoms: _464  and  _465
REMARK  197  A    between atoms: _464  and  _467
REMARK  198  A    between atoms: _467  and  _468
REMARK  199  A    between atoms: _474  and  _476
REMARK  200  A    between atoms: _476  and  _477
REMARK  201  A    between atoms: _476  and  _479
REMARK  202  A    between atoms: _479  and  _480
REMARK  203  A    between atoms: _483  and  _485
REMARK  204  A    between atoms: _485  and  _486
REMARK  205  A    between atoms: _485  and  _488
REMARK  206  A    between atoms: _491  and  _493
REMARK  207  A    between atoms: _493  and  _494
REMARK  208  A    between atoms: _493  and  _496
REMARK  209  A    between atoms: _496  and  _497
REMARK  210  A    between atoms: _501  and  _502
REMARK  211  A    between atoms: _507  and  _509
REMARK  212  A    between atoms: _509  and  _510
REMARK  213  A    between atoms: _509  and  _512
REMARK  214  A    between atoms: _512  and  _513
REMARK  215  A    between atoms: _517  and  _518
REMARK  216  A    between atoms: _523  and  _525
REMARK  217  A    between atoms: _525  and  _526
REMARK  218  A    between atoms: _525  and  _528
REMARK  219  A    between atoms: _528  and  _529
REMARK  220  A    between atoms: _532  and  _534
REMARK  221  A    between atoms: _534  and  _535
REMARK  222  A    between atoms: _534  and  _537
REMARK  223  A    between atoms: _537  and  _538
REMARK  224  A    between atoms: _543  and  _545
REMARK  225  A    between atoms: _545  and  _546
REMARK  226  A    between atoms: _545  and  _548
REMARK  227  A    between atoms: _551  and  _553
REMARK  228  A    between atoms: _553  and  _554
REMARK  229  A    between atoms: _553  and  _556
REMARK  230  A    between atoms: _556  and  _557
REMARK  231  A    between atoms: _560  and  _562
REMARK  232  A    between atoms: _562  and  _563
REMARK  233  A    between atoms: _565  and  _567
REMARK  234  A    between atoms: _567  and  _568
REMARK  235  A    between atoms: _567  and  _570
REMARK  236  A    between atoms: _570  and  _571
REMARK  237  A    between atoms: _571  and  _572
REMARK  238  A    between atoms: _572  and  _573
REMARK                            x       y       z     vdW  Elec       q    Type
REMARK                         _______ _______ _______ _____ _____    ______ ____
ROOT
ATOM      1  O   HOH     1       5.365  31.605   9.398  0.00  0.00    +0.000 OA
ENDROOT
TORSDOF 0
REMARK  Name = ../refined-set-2016/4a6c/4a6c_pocket.pdb
REMARK  238 active torsions:
REMARK  status: ('A' for Active; 'I' for Inactive)
REMARK    1  A    between atoms: _1  and  _3
REMARK    2  A    between atoms: _3  and  _4
REMARK    3  A    between atoms: _3  and  _6
REMARK    4  A    between atoms: _6  and  _7
REMARK    5  A    between atoms: _7  and  _8
REMARK    6  A    between atoms: _8  and  _9
REMARK    7  A    between atoms: _18  and  _20
REMARK    8  A    between atoms: _20  and  _21
REMARK    9  A    between atoms: _20  and  _23
REMARK   10  A    between atoms: _23  and  _24
REMARK   11  A    between atoms: _27  and  _29
REMARK   12  A    between atoms: _29  and  _30
REMARK   13  A    between atoms: _29  and  _32
REMARK   14  A    between atoms: _32  and  _33
REMARK   15  A    between atoms: _36  and  _38
REMARK   16  A    between atoms: _38  and  _39
REMARK   17  A    between atoms: _38  and  _41
REMARK   18  A    between atoms: _41  and  _42
REMARK   19  A    between atoms: _45  and  _47
REMARK   20  A    between atoms: _47  and  _48
REMARK   21  A    between atoms: _47  and  _50
REMARK   22  A    between atoms: _50  and  _51
REMARK   23  A    between atoms: _54  and  _56
REMARK   24  A    between atoms: _56  and  _57
REMARK   25  A    between atoms: _59  and  _61
REMARK   26  A    between atoms: _61  and  _62
REMARK   27  A    between atoms: _65  and  _67
REMARK   28  A    between atoms: _67  and  _68
REMARK   29  A    between atoms: _67  and  _70
REMARK   30  A    between atoms: _70  and  _71
REMARK   31  A    between atoms: _74  and  _76
REMARK   32  A    between atoms: _76  and  _77
REMARK   33  A    between atoms: _76  and  _79
REMARK   34  A    between atoms: _79  and  _80
REMARK   35  A    between atoms: _83  and  _85
REMARK   36  A    between atoms: _85  and  _86
REMARK   37  A    between atoms: _85  and  _88
REMARK   38  A    between atoms: _88  and  _89
REMARK   39  A    between atoms: _92  and  _94
REMARK   40  A    between atoms: _94  and  _95
REMARK   41  A    between atoms: _94  and  _97
REMARK   42  A    between atoms: _100  and  _102
REMARK   43  A    between atoms: _102  and  _103
REMARK   44  A    between atoms: _102  and  _105
REMARK   45  A    between atoms: _105  and  _106
REMARK   46  A    between atoms: _106  and  _107
REMARK   47  A    between atoms: _107  and  _108
REMARK   48  A    between atoms: _108  and  _109
REMARK   49  A    between atoms: _113  and  _115
REMARK   50  A    between atoms: _115  and  _116
REMARK   51  A    between atoms: _115  and  _118
REMARK   52  A    between atoms: _118  and  _119
REMARK   53  A    between atoms: _119  and  _120
REMARK   54  A    between atoms: _122  and  _124
REMARK   55  A    between atoms: _124  and  _125
REMARK   56  A    between atoms: _124  and  _127
REMARK   57  A    between atoms: _127  and  _128
REMARK   58  A    between atoms: _131  and  _133
REMARK   59  A    between atoms: _133  and  _134
REMARK   60  A    between atoms: _136  and  _138
REMARK   61  A    between atoms: _138  and  _139
REMARK   62  A    between atoms: _141  and  _143
REMARK   63  A    between atoms: _143  and  _144
REMARK   64  A    between atoms: _143  and  _146
REMARK   65  A    between atoms: _146  and  _147
REMARK   66  A    between atoms: _150  and  _152
REMARK   67  A    between atoms: _152  and  _153
REMARK   68  A    between atoms: _155  and  _157
REMARK   69  A    between atoms: _157  and  _158
REMARK   70  A    between atoms: _160  and  _162
REMARK   71  A    between atoms: _162  and  _163
REMARK   72  A    between atoms: _162  and  _165
REMARK   73  A    between atoms: _165  and  _166
REMARK   74  A    between atoms: _172  and  _174
REMARK   75  A    between atoms: _174  and  _175
REMARK   76  A    between atoms: _174  and  _177
REMARK   77  A    between atoms: _177  and  _178
REMARK   78  A    between atoms: _181  and  _183
REMARK   79  A    between atoms: _183  and  _184
REMARK   80  A    between atoms: _183  and  _186
REMARK   81  A    between atoms: _189  and  _191
REMARK   82  A    between atoms: _191  and  _192
REMARK   83  A    between atoms: _191  and  _194
REMARK   84  A    between atoms: _194  and  _195
REMARK   85  A    between atoms: _198  and  _200
REMARK   86  A    between atoms: _200  and  _201
REMARK   87  A    between atoms: _200  and  _203
REMARK   88  A    between atoms: _203  and  _204
REMARK   89  A    between atoms: _208  and  _209
REMARK   90  A    between atoms: _214  and  _216
REMARK   91  A    between atoms: _216  and  _217
REMARK   92  A    between atoms: _216  and  _219
REMARK   93  A    between atoms: _219  and  _220
REMARK   94  A    between atoms: _223  and  _225
REMARK   95  A    between atoms: _225  and  _226
REMARK   96  A    between atoms: _225  and  _228
REMARK   97  A    between atoms: _228  and  _229
REMARK   98  A    between atoms: _234  and  _236
REMARK   99  A    between atoms: _236  and  _237
REMARK  100  A    between atoms: _236  and  _239
REMARK  101  A    between atoms: _242  and  _244
REMARK  102  A    between atoms: _244  and  _245
REMARK  103  A    between atoms: _244  and  _247
REMARK  104  A    between atoms: _247  and  _248
REMARK  105  A    between atoms: _251  and  _253
REMARK  106  A    between atoms: _253  and  _254
REMARK  107  A    between atoms: _256  and  _258
REMARK  108  A    between atoms: _258  and  _259
REMARK  109  A    between atoms: _258  and  _261
REMARK  110  A    between atoms: _261  and  _262
REMARK  111  A    between atoms: _262  and  _263
REMARK  112  A    between atoms: _263  and  _264
REMARK  113  A    between atoms: _273  and  _275
REMARK  114  A    between atoms: _275  and  _276
REMARK  115  A    between atoms: _275  and  _278
REMARK  116  A    between atoms: _278  and  _279
REMARK  117  A    between atoms: _284  and  _286
REMARK  118  A    between atoms: _286  and  _287
REMARK  119  A    between atoms: _286  and  _289
REMARK  120  A    between atoms: _289  and  _290
REMARK  121  A    between atoms: _290  and  _291
REMARK  122  A    between atoms: _291  and  _292
REMARK  123  A    between atoms: _301  and  _303
REMARK  124  A    between atoms: _303  and  _304
REMARK  125  A    between atoms: _303  and  _306
REMARK  126  A    between atoms: _306  and  _307
REMARK  127  A    between atoms: _310  and  _312
REMARK  128  A    between atoms: _312  and  _313
REMARK  129  A    between atoms: _312  and  _315
REMARK  130  A    between atoms: _315  and  _316
REMARK  131  A    between atoms: _319  and  _321
REMARK  132  A    between atoms: _321  and  _322
REMARK  133  A    between atoms: _321  and  _324
REMARK  134  A    between atoms: _324  and  _325
REMARK  135  A    between atoms: _328  and  _330
REMARK  136  A    between atoms: _330  and  _331
REMARK  137  A    between atoms: _330  and  _333
REMARK  138  A    between atoms: _333  and  _334
REMARK  139  A    between atoms: _337  and  _339
REMARK  140  A    between atoms: _339  and  _340
REMARK  141  A    between atoms: _339  and  _342
REMARK  142  A    between atoms: _342  and  _343
REMARK  143  A    between atoms: _346  and  _348
REMARK  144  A    between atoms: _348  and  _349
REMARK  145  A    between atoms: _351  and  _353
REMARK  146  A    between atoms: _353  and  _354
REMARK  147  A    between atoms: _357  and  _359
REMARK  148  A    between atoms: _359  and  _360
REMARK  149  A    between atoms: _359  and  _362
REMARK  150  A    between atoms: _362  and  _363
REMARK  151  A    between atoms: _366  and  _368
REMARK  152  A    between atoms: _368  and  _369
REMARK  153  A    between atoms: _368  and  _371
REMARK  154  A    between atoms: _371  and  _372
REMARK  155  A    between atoms: _375  and  _377
REMARK  156  A    between atoms: _377  and  _378
REMARK  157  A    between atoms: _377  and  _380
REMARK  158  A    between atoms: _380  and  _381
REMARK  159  A    between atoms: _384  and  _386
REMARK  160  A    between atoms: _386  and  _387
REMARK  161  A    between atoms: _386  and  _389
REMARK  162  A    between atoms: _392  and  _394
REMARK  163  A    between atoms: _394  and  _395
REMARK  164  A    between atoms: _394  and  _397
REMARK  165  A    between atoms: _397  and  _398
REMARK  166  A    between atoms: _398  and  _399
REMARK  167  A    between atoms: _402  and  _404
REMARK  168  A    between atoms: _404  and  _405
REMARK  169  A    between atoms: _404  and  _407
REMARK  170  A    between atoms: _407  and  _408
REMARK  171  A    between atoms: _408  and  _409
REMARK  172  A    between atoms: _409  and  _410
REMARK  173  A    between atoms: _410  and  _411
REMARK  174  A    between atoms: _415  and  _417
REMARK  175  A    between atoms: _417  and  _418
REMARK  176  A    between atoms: _417  and  _420
REMARK  177  A    between atoms: _420  and  _421
REMARK  178  A    between atoms: _421  and  _422
REMARK  179  A    between atoms: _424  and  _426
REMARK  180  A    between atoms: _426  and  _427
REMARK  181  A    between atoms: _426  and  _429
REMARK  182  A    between atoms: _429  and  _430
REMARK  183  A    between atoms: _433  and  _435
REMARK  184  A    between atoms: _435  and  _436
REMARK  185  A    between atoms: _438  and  _440
REMARK  186  A    between atoms: _440  and  _441
REMARK  187  A    between atoms: _443  and  _445
REMARK  188  A    between atoms: _445  and  _446
REMARK  189  A    between atoms: _445  and  _448
REMARK  190  A    between atoms: _448  and  _449
REMARK  191  A    between atoms: _452  and  _454
REMARK  192  A    between atoms: _454  and  _455
REMARK  193  A    between atoms: _457  and  _459
REMARK  194  A    between atoms: _459  and  _460
REMARK  195  A    between atoms: _462  and  _464
REMARK  196  A    between atoms: _464  and  _465
REMARK  197  A    between atoms: _464  and  _467
REMARK  198  A    between atoms: _467  and  _468
REMARK  199  A    between atoms: _474  and  _476
REMARK  200  A    between atoms: _476  and  _477
REMARK  201  A    between atoms: _476  and  _479
REMARK  202  A    between atoms: _479  and  _480
REMARK  203  A    between atoms: _483  and  _485
REMARK  204  A    between atoms: _485  and  _486
REMARK  205  A    between atoms: _485  and  _488
REMARK  206  A    between atoms: _491  and  _493
REMARK  207  A    between atoms: _493  and  _494
REMARK  208  A    between atoms: _493  and  _496
REMARK  209  A    between atoms: _496  and  _497
REMARK  210  A    between atoms: _501  and  _502
REMARK  211  A    between atoms: _507  and  _509
REMARK  212  A    between atoms: _509  and  _510
REMARK  213  A    between atoms: _509  and  _512
REMARK  214  A    between atoms: _512  and  _513
REMARK  215  A    between atoms: _517  and  _518
REMARK  216  A    between atoms: _523  and  _525
REMARK  217  A    between atoms: _525  and  _526
REMARK  218  A    between atoms: _525  and  _528
REMARK  219  A    between atoms: _528  and  _529
REMARK  220  A    between atoms: _532  and  _534
REMARK  221  A    between atoms: _534  and  _535
REMARK  222  A    between atoms: _534  and  _537
REMARK  223  A    between atoms: _537  and  _538
REMARK  224  A    between atoms: _543  and  _545
REMARK  225  A    between atoms: _545  and  _546
REMARK  226  A    between atoms: _545  and  _548
REMARK  227  A    between atoms: _551  and  _553
REMARK  228  A    between atoms: _553  and  _554
REMARK  229  A    between atoms: _553  and  _556
REMARK  230  A    between atoms: _556  and  _557
REMARK  231  A    between atoms: _560  and  _562
REMARK  232  A    between atoms: _562  and  _563
REMARK  233  A    between atoms: _565  and  _567
REMARK  234  A    between atoms: _567  and  _568
REMARK  235  A    between atoms: _567  and  _570
REMARK  236  A    between atoms: _570  and  _571
REMARK  237  A    between atoms: _571  and  _572
REMARK  238  A    between atoms: _572  and  _573
REMARK                            x       y       z     vdW  Elec       q    Type
REMARK                         _______ _______ _______ _____ _____    ______ ____
ROOT
ATOM      1  O   HOH     1       5.017  35.208   7.224  0.00  0.00    +0.000 OA
ENDROOT
TORSDOF 0
REMARK  Name = ../refined-set-2016/4a6c/4a6c_pocket.pdb
REMARK  238 active torsions:
REMARK  status: ('A' for Active; 'I' for Inactive)
REMARK    1  A    between atoms: _1  and  _3
REMARK    2  A    between atoms: _3  and  _4
REMARK    3  A    between atoms: _3  and  _6
REMARK    4  A    between atoms: _6  and  _7
REMARK    5  A    between atoms: _7  and  _8
REMARK    6  A    between atoms: _8  and  _9
REMARK    7  A    between atoms: _18  and  _20
REMARK    8  A    between atoms: _20  and  _21
REMARK    9  A    between atoms: _20  and  _23
REMARK   10  A    between atoms: _23  and  _24
REMARK   11  A    between atoms: _27  and  _29
REMARK   12  A    between atoms: _29  and  _30
REMARK   13  A    between atoms: _29  and  _32
REMARK   14  A    between atoms: _32  and  _33
REMARK   15  A    between atoms: _36  and  _38
REMARK   16  A    between atoms: _38  and  _39
REMARK   17  A    between atoms: _38  and  _41
REMARK   18  A    between atoms: _41  and  _42
REMARK   19  A    between atoms: _45  and  _47
REMARK   20  A    between atoms: _47  and  _48
REMARK   21  A    between atoms: _47  and  _50
REMARK   22  A    between atoms: _50  and  _51
REMARK   23  A    between atoms: _54  and  _56
REMARK   24  A    between atoms: _56  and  _57
REMARK   25  A    between atoms: _59  and  _61
REMARK   26  A    between atoms: _61  and  _62
REMARK   27  A    between atoms: _65  and  _67
REMARK   28  A    between atoms: _67  and  _68
REMARK   29  A    between atoms: _67  and  _70
REMARK   30  A    between atoms: _70  and  _71
REMARK   31  A    between atoms: _74  and  _76
REMARK   32  A    between atoms: _76  and  _77
REMARK   33  A    between atoms: _76  and  _79
REMARK   34  A    between atoms: _79  and  _80
REMARK   35  A    between atoms: _83  and  _85
REMARK   36  A    between atoms: _85  and  _86
REMARK   37  A    between atoms: _85  and  _88
REMARK   38  A    between atoms: _88  and  _89
REMARK   39  A    between atoms: _92  and  _94
REMARK   40  A    between atoms: _94  and  _95
REMARK   41  A    between atoms: _94  and  _97
REMARK   42  A    between atoms: _100  and  _102
REMARK   43  A    between atoms: _102  and  _103
REMARK   44  A    between atoms: _102  and  _105
REMARK   45  A    between atoms: _105  and  _106
REMARK   46  A    between atoms: _106  and  _107
REMARK   47  A    between atoms: _107  and  _108
REMARK   48  A    between atoms: _108  and  _109
REMARK   49  A    between atoms: _113  and  _115
REMARK   50  A    between atoms: _115  and  _116
REMARK   51  A    between atoms: _115  and  _118
REMARK   52  A    between atoms: _118  and  _119
REMARK   53  A    between atoms: _119  and  _120
REMARK   54  A    between atoms: _122  and  _124
REMARK   55  A    between atoms: _124  and  _125
REMARK   56  A    between atoms: _124  and  _127
REMARK   57  A    between atoms: _127  and  _128
REMARK   58  A    between atoms: _131  and  _133
REMARK   59  A    between atoms: _133  and  _134
REMARK   60  A    between atoms: _136  and  _138
REMARK   61  A    between atoms: _138  and  _139
REMARK   62  A    between atoms: _141  and  _143
REMARK   63  A    between atoms: _143  and  _144
REMARK   64  A    between atoms: _143  and  _146
REMARK   65  A    between atoms: _146  and  _147
REMARK   66  A    between atoms: _150  and  _152
REMARK   67  A    between atoms: _152  and  _153
REMARK   68  A    between atoms: _155  and  _157
REMARK   69  A    between atoms: _157  and  _158
REMARK   70  A    between atoms: _160  and  _162
REMARK   71  A    between atoms: _162  and  _163
REMARK   72  A    between atoms: _162  and  _165
REMARK   73  A    between atoms: _165  and  _166
REMARK   74  A    between atoms: _172  and  _174
REMARK   75  A    between atoms: _174  and  _175
REMARK   76  A    between atoms: _174  and  _177
REMARK   77  A    between atoms: _177  and  _178
REMARK   78  A    between atoms: _181  and  _183
REMARK   79  A    between atoms: _183  and  _184
REMARK   80  A    between atoms: _183  and  _186
REMARK   81  A    between atoms: _189  and  _191
REMARK   82  A    between atoms: _191  and  _192
REMARK   83  A    between atoms: _191  and  _194
REMARK   84  A    between atoms: _194  and  _195
REMARK   85  A    between atoms: _198  and  _200
REMARK   86  A    between atoms: _200  and  _201
REMARK   87  A    between atoms: _200  and  _203
REMARK   88  A    between atoms: _203  and  _204
REMARK   89  A    between atoms: _208  and  _209
REMARK   90  A    between atoms: _214  and  _216
REMARK   91  A    between atoms: _216  and  _217
REMARK   92  A    between atoms: _216  and  _219
REMARK   93  A    between atoms: _219  and  _220
REMARK   94  A    between atoms: _223  and  _225
REMARK   95  A    between atoms: _225  and  _226
REMARK   96  A    between atoms: _225  and  _228
REMARK   97  A    between atoms: _228  and  _229
REMARK   98  A    between atoms: _234  and  _236
REMARK   99  A    between atoms: _236  and  _237
REMARK  100  A    between atoms: _236  and  _239
REMARK  101  A    between atoms: _242  and  _244
REMARK  102  A    between atoms: _244  and  _245
REMARK  103  A    between atoms: _244  and  _247
REMARK  104  A    between atoms: _247  and  _248
REMARK  105  A    between atoms: _251  and  _253
REMARK  106  A    between atoms: _253  and  _254
REMARK  107  A    between atoms: _256  and  _258
REMARK  108  A    between atoms: _258  and  _259
REMARK  109  A    between atoms: _258  and  _261
REMARK  110  A    between atoms: _261  and  _262
REMARK  111  A    between atoms: _262  and  _263
REMARK  112  A    between atoms: _263  and  _264
REMARK  113  A    between atoms: _273  and  _275
REMARK  114  A    between atoms: _275  and  _276
REMARK  115  A    between atoms: _275  and  _278
REMARK  116  A    between atoms: _278  and  _279
REMARK  117  A    between atoms: _284  and  _286
REMARK  118  A    between atoms: _286  and  _287
REMARK  119  A    between atoms: _286  and  _289
REMARK  120  A    between atoms: _289  and  _290
REMARK  121  A    between atoms: _290  and  _291
REMARK  122  A    between atoms: _291  and  _292
REMARK  123  A    between atoms: _301  and  _303
REMARK  124  A    between atoms: _303  and  _304
REMARK  125  A    between atoms: _303  and  _306
REMARK  126  A    between atoms: _306  and  _307
REMARK  127  A    between atoms: _310  and  _312
REMARK  128  A    between atoms: _312  and  _313
REMARK  129  A    between atoms: _312  and  _315
REMARK  130  A    between atoms: _315  and  _316
REMARK  131  A    between atoms: _319  and  _321
REMARK  132  A    between atoms: _321  and  _322
REMARK  133  A    between atoms: _321  and  _324
REMARK  134  A    between atoms: _324  and  _325
REMARK  135  A    between atoms: _328  and  _330
REMARK  136  A    between atoms: _330  and  _331
REMARK  137  A    between atoms: _330  and  _333
REMARK  138  A    between atoms: _333  and  _334
REMARK  139  A    between atoms: _337  and  _339
REMARK  140  A    between atoms: _339  and  _340
REMARK  141  A    between atoms: _339  and  _342
REMARK  142  A    between atoms: _342  and  _343
REMARK  143  A    between atoms: _346  and  _348
REMARK  144  A    between atoms: _348  and  _349
REMARK  145  A    between atoms: _351  and  _353
REMARK  146  A    between atoms: _353  and  _354
REMARK  147  A    between atoms: _357  and  _359
REMARK  148  A    between atoms: _359  and  _360
REMARK  149  A    between atoms: _359  and  _362
REMARK  150  A    between atoms: _362  and  _363
REMARK  151  A    between atoms: _366  and  _368
REMARK  152  A    between atoms: _368  and  _369
REMARK  153  A    between atoms: _368  and  _371
REMARK  154  A    between atoms: _371  and  _372
REMARK  155  A    between atoms: _375  and  _377
REMARK  156  A    between atoms: _377  and  _378
REMARK  157  A    between atoms: _377  and  _380
REMARK  158  A    between atoms: _380  and  _381
REMARK  159  A    between atoms: _384  and  _386
REMARK  160  A    between atoms: _386  and  _387
REMARK  161  A    between atoms: _386  and  _389
REMARK  162  A    between atoms: _392  and  _394
REMARK  163  A    between atoms: _394  and  _395
REMARK  164  A    between atoms: _394  and  _397
REMARK  165  A    between atoms: _397  and  _398
REMARK  166  A    between atoms: _398  and  _399
REMARK  167  A    between atoms: _402  and  _404
REMARK  168  A    between atoms: _404  and  _405
REMARK  169  A    between atoms: _404  and  _407
REMARK  170  A    between atoms: _407  and  _408
REMARK  171  A    between atoms: _408  and  _409
REMARK  172  A    between atoms: _409  and  _410
REMARK  173  A    between atoms: _410  and  _411
REMARK  174  A    between atoms: _415  and  _417
REMARK  175  A    between atoms: _417  and  _418
REMARK  176  A    between atoms: _417  and  _420
REMARK  177  A    between atoms: _420  and  _421
REMARK  178  A    between atoms: _421  and  _422
REMARK  179  A    between atoms: _424  and  _426
REMARK  180  A    between atoms: _426  and  _427
REMARK  181  A    between atoms: _426  and  _429
REMARK  182  A    between atoms: _429  and  _430
REMARK  183  A    between atoms: _433  and  _435
REMARK  184  A    between atoms: _435  and  _436
REMARK  185  A    between atoms: _438  and  _440
REMARK  186  A    between atoms: _440  and  _441
REMARK  187  A    between atoms: _443  and  _445
REMARK  188  A    between atoms: _445  and  _446
REMARK  189  A    between atoms: _445  and  _448
REMARK  190  A    between atoms: _448  and  _449
REMARK  191  A    between atoms: _452  and  _454
REMARK  192  A    between atoms: _454  and  _455
REMARK  193  A    between atoms: _457  and  _459
REMARK  194  A    between atoms: _459  and  _460
REMARK  195  A    between atoms: _462  and  _464
REMARK  196  A    between atoms: _464  and  _465
REMARK  197  A    between atoms: _464  and  _467
REMARK  198  A    between atoms: _467  and  _468
REMARK  199  A    between atoms: _474  and  _476
REMARK  200  A    between atoms: _476  and  _477
REMARK  201  A    between atoms: _476  and  _479
REMARK  202  A    between atoms: _479  and  _480
REMARK  203  A    between atoms: _483  and  _485
REMARK  204  A    between atoms: _485  and  _486
REMARK  205  A    between atoms: _485  and  _488
REMARK  206  A    between atoms: _491  and  _493
REMARK  207  A    between atoms: _493  and  _494
REMARK  208  A    between atoms: _493  and  _496
REMARK  209  A    between atoms: _496  and  _497
REMARK  210  A    between atoms: _501  and  _502
REMARK  211  A    between atoms: _507  and  _509
REMARK  212  A    between atoms: _509  and  _510
REMARK  213  A    between atoms: _509  and  _512
REMARK  214  A    between atoms: _512  and  _513
REMARK  215  A    between atoms: _517  and  _518
REMARK  216  A    between atoms: _523  and  _525
REMARK  217  A    between atoms: _525  and  _526
REMARK  218  A    between atoms: _525  and  _528
REMARK  219  A    between atoms: _528  and  _529
REMARK  220  A    between atoms: _532  and  _534
REMARK  221  A    between atoms: _534  and  _535
REMARK  222  A    between atoms: _534  and  _537
REMARK  223  A    between atoms: _537  and  _538
REMARK  224  A    between atoms: _543  and  _545
REMARK  225  A    between atoms: _545  and  _546
REMARK  226  A    between atoms: _545  and  _548
REMARK  227  A    between atoms: _551  and  _553
REMARK  228  A    between atoms: _553  and  _554
REMARK  229  A    between atoms: _553  and  _556
REMARK  230  A    between atoms: _556  and  _557
REMARK  231  A    between atoms: _560  and  _562
REMARK  232  A    between atoms: _562  and  _563
REMARK  233  A    between atoms: _565  and  _567
REMARK  234  A    between atoms: _567  and  _568
REMARK  235  A    between atoms: _567  and  _570
REMARK  236  A    between atoms: _570  and  _571
REMARK  237  A    between atoms: _571  and  _572
REMARK  238  A    between atoms: _572  and  _573
REMARK                            x       y       z     vdW  Elec       q    Type
REMARK                         _______ _______ _______ _____ _____    ______ ____
ROOT
ATOM      1  O   HOH     1       4.145  34.349  10.960  0.00  0.00    +0.000 OA
ENDROOT
TORSDOF 0
REMARK  Name = ../refined-set-2016/4a6c/4a6c_pocket.pdb
REMARK  238 active torsions:
REMARK  status: ('A' for Active; 'I' for Inactive)
REMARK    1  A    between atoms: _1  and  _3
REMARK    2  A    between atoms: _3  and  _4
REMARK    3  A    between atoms: _3  and  _6
REMARK    4  A    between atoms: _6  and  _7
REMARK    5  A    between atoms: _7  and  _8
REMARK    6  A    between atoms: _8  and  _9
REMARK    7  A    between atoms: _18  and  _20
REMARK    8  A    between atoms: _20  and  _21
REMARK    9  A    between atoms: _20  and  _23
REMARK   10  A    between atoms: _23  and  _24
REMARK   11  A    between atoms: _27  and  _29
REMARK   12  A    between atoms: _29  and  _30
REMARK   13  A    between atoms: _29  and  _32
REMARK   14  A    between atoms: _32  and  _33
REMARK   15  A    between atoms: _36  and  _38
REMARK   16  A    between atoms: _38  and  _39
REMARK   17  A    between atoms: _38  and  _41
REMARK   18  A    between atoms: _41  and  _42
REMARK   19  A    between atoms: _45  and  _47
REMARK   20  A    between atoms: _47  and  _48
REMARK   21  A    between atoms: _47  and  _50
REMARK   22  A    between atoms: _50  and  _51
REMARK   23  A    between atoms: _54  and  _56
REMARK   24  A    between atoms: _56  and  _57
REMARK   25  A    between atoms: _59  and  _61
REMARK   26  A    between atoms: _61  and  _62
REMARK   27  A    between atoms: _65  and  _67
REMARK   28  A    between atoms: _67  and  _68
REMARK   29  A    between atoms: _67  and  _70
REMARK   30  A    between atoms: _70  and  _71
REMARK   31  A    between atoms: _74  and  _76
REMARK   32  A    between atoms: _76  and  _77
REMARK   33  A    between atoms: _76  and  _79
REMARK   34  A    between atoms: _79  and  _80
REMARK   35  A    between atoms: _83  and  _85
REMARK   36  A    between atoms: _85  and  _86
REMARK   37  A    between atoms: _85  and  _88
REMARK   38  A    between atoms: _88  and  _89
REMARK   39  A    between atoms: _92  and  _94
REMARK   40  A    between atoms: _94  and  _95
REMARK   41  A    between atoms: _94  and  _97
REMARK   42  A    between atoms: _100  and  _102
REMARK   43  A    between atoms: _102  and  _103
REMARK   44  A    between atoms: _102  and  _105
REMARK   45  A    between atoms: _105  and  _106
REMARK   46  A    between atoms: _106  and  _107
REMARK   47  A    between atoms: _107  and  _108
REMARK   48  A    between atoms: _108  and  _109
REMARK   49  A    between atoms: _113  and  _115
REMARK   50  A    between atoms: _115  and  _116
REMARK   51  A    between atoms: _115  and  _118
REMARK   52  A    between atoms: _118  and  _119
REMARK   53  A    between atoms: _119  and  _120
REMARK   54  A    between atoms: _122  and  _124
REMARK   55  A    between atoms: _124  and  _125
REMARK   56  A    between atoms: _124  and  _127
REMARK   57  A    between atoms: _127  and  _128
REMARK   58  A    between atoms: _131  and  _133
REMARK   59  A    between atoms: _133  and  _134
REMARK   60  A    between atoms: _136  and  _138
REMARK   61  A    between atoms: _138  and  _139
REMARK   62  A    between atoms: _141  and  _143
REMARK   63  A    between atoms: _143  and  _144
REMARK   64  A    between atoms: _143  and  _146
REMARK   65  A    between atoms: _146  and  _147
REMARK   66  A    between atoms: _150  and  _152
REMARK   67  A    between atoms: _152  and  _153
REMARK   68  A    between atoms: _155  and  _157
REMARK   69  A    between atoms: _157  and  _158
REMARK   70  A    between atoms: _160  and  _162
REMARK   71  A    between atoms: _162  and  _163
REMARK   72  A    between atoms: _162  and  _165
REMARK   73  A    between atoms: _165  and  _166
REMARK   74  A    between atoms: _172  and  _174
REMARK   75  A    between atoms: _174  and  _175
REMARK   76  A    between atoms: _174  and  _177
REMARK   77  A    between atoms: _177  and  _178
REMARK   78  A    between atoms: _181  and  _183
REMARK   79  A    between atoms: _183  and  _184
REMARK   80  A    between atoms: _183  and  _186
REMARK   81  A    between atoms: _189  and  _191
REMARK   82  A    between atoms: _191  and  _192
REMARK   83  A    between atoms: _191  and  _194
REMARK   84  A    between atoms: _194  and  _195
REMARK   85  A    between atoms: _198  and  _200
REMARK   86  A    between atoms: _200  and  _201
REMARK   87  A    between atoms: _200  and  _203
REMARK   88  A    between atoms: _203  and  _204
REMARK   89  A    between atoms: _208  and  _209
REMARK   90  A    between atoms: _214  and  _216
REMARK   91  A    between atoms: _216  and  _217
REMARK   92  A    between atoms: _216  and  _219
REMARK   93  A    between atoms: _219  and  _220
REMARK   94  A    between atoms: _223  and  _225
REMARK   95  A    between atoms: _225  and  _226
REMARK   96  A    between atoms: _225  and  _228
REMARK   97  A    between atoms: _228  and  _229
REMARK   98  A    between atoms: _234  and  _236
REMARK   99  A    between atoms: _236  and  _237
REMARK  100  A    between atoms: _236  and  _239
REMARK  101  A    between atoms: _242  and  _244
REMARK  102  A    between atoms: _244  and  _245
REMARK  103  A    between atoms: _244  and  _247
REMARK  104  A    between atoms: _247  and  _248
REMARK  105  A    between atoms: _251  and  _253
REMARK  106  A    between atoms: _253  and  _254
REMARK  107  A    between atoms: _256  and  _258
REMARK  108  A    between atoms: _258  and  _259
REMARK  109  A    between atoms: _258  and  _261
REMARK  110  A    between atoms: _261  and  _262
REMARK  111  A    between atoms: _262  and  _263
REMARK  112  A    between atoms: _263  and  _264
REMARK  113  A    between atoms: _273  and  _275
REMARK  114  A    between atoms: _275  and  _276
REMARK  115  A    between atoms: _275  and  _278
REMARK  116  A    between atoms: _278  and  _279
REMARK  117  A    between atoms: _284  and  _286
REMARK  118  A    between atoms: _286  and  _287
REMARK  119  A    between atoms: _286  and  _289
REMARK  120  A    between atoms: _289  and  _290
REMARK  121  A    between atoms: _290  and  _291
REMARK  122  A    between atoms: _291  and  _292
REMARK  123  A    between atoms: _301  and  _303
REMARK  124  A    between atoms: _303  and  _304
REMARK  125  A    between atoms: _303  and  _306
REMARK  126  A    between atoms: _306  and  _307
REMARK  127  A    between atoms: _310  and  _312
REMARK  128  A    between atoms: _312  and  _313
REMARK  129  A    between atoms: _312  and  _315
REMARK  130  A    between atoms: _315  and  _316
REMARK  131  A    between atoms: _319  and  _321
REMARK  132  A    between atoms: _321  and  _322
REMARK  133  A    between atoms: _321  and  _324
REMARK  134  A    between atoms: _324  and  _325
REMARK  135  A    between atoms: _328  and  _330
REMARK  136  A    between atoms: _330  and  _331
REMARK  137  A    between atoms: _330  and  _333
REMARK  138  A    between atoms: _333  and  _334
REMARK  139  A    between atoms: _337  and  _339
REMARK  140  A    between atoms: _339  and  _340
REMARK  141  A    between atoms: _339  and  _342
REMARK  142  A    between atoms: _342  and  _343
REMARK  143  A    between atoms: _346  and  _348
REMARK  144  A    between atoms: _348  and  _349
REMARK  145  A    between atoms: _351  and  _353
REMARK  146  A    between atoms: _353  and  _354
REMARK  147  A    between atoms: _357  and  _359
REMARK  148  A    between atoms: _359  and  _360
REMARK  149  A    between atoms: _359  and  _362
REMARK  150  A    between atoms: _362  and  _363
REMARK  151  A    between atoms: _366  and  _368
REMARK  152  A    between atoms: _368  and  _369
REMARK  153  A    between atoms: _368  and  _371
REMARK  154  A    between atoms: _371  and  _372
REMARK  155  A    between atoms: _375  and  _377
REMARK  156  A    between atoms: _377  and  _378
REMARK  157  A    between atoms: _377  and  _380
REMARK  158  A    between atoms: _380  and  _381
REMARK  159  A    between atoms: _384  and  _386
REMARK  160  A    between atoms: _386  and  _387
REMARK  161  A    between atoms: _386  and  _389
REMARK  162  A    between atoms: _392  and  _394
REMARK  163  A    between atoms: _394  and  _395
REMARK  164  A    between atoms: _394  and  _397
REMARK  165  A    between atoms: _397  and  _398
REMARK  166  A    between atoms: _398  and  _399
REMARK  167  A    between atoms: _402  and  _404
REMARK  168  A    between atoms: _404  and  _405
REMARK  169  A    between atoms: _404  and  _407
REMARK  170  A    between atoms: _407  and  _408
REMARK  171  A    between atoms: _408  and  _409
REMARK  172  A    between atoms: _409  and  _410
REMARK  173  A    between atoms: _410  and  _411
REMARK  174  A    between atoms: _415  and  _417
REMARK  175  A    between atoms: _417  and  _418
REMARK  176  A    between atoms: _417  and  _420
REMARK  177  A    between atoms: _420  and  _421
REMARK  178  A    between atoms: _421  and  _422
REMARK  179  A    between atoms: _424  and  _426
REMARK  180  A    between atoms: _426  and  _427
REMARK  181  A    between atoms: _426  and  _429
REMARK  182  A    between atoms: _429  and  _430
REMARK  183  A    between atoms: _433  and  _435
REMARK  184  A    between atoms: _435  and  _436
REMARK  185  A    between atoms: _438  and  _440
REMARK  186  A    between atoms: _440  and  _441
REMARK  187  A    between atoms: _443  and  _445
REMARK  188  A    between atoms: _445  and  _446
REMARK  189  A    between atoms: _445  and  _448
REMARK  190  A    between atoms: _448  and  _449
REMARK  191  A    between atoms: _452  and  _454
REMARK  192  A    between atoms: _454  and  _455
REMARK  193  A    between atoms: _457  and  _459
REMARK  194  A    between atoms: _459  and  _460
REMARK  195  A    between atoms: _462  and  _464
REMARK  196  A    between atoms: _464  and  _465
REMARK  197  A    between atoms: _464  and  _467
REMARK  198  A    between atoms: _467  and  _468
REMARK  199  A    between atoms: _474  and  _476
REMARK  200  A    between atoms: _476  and  _477
REMARK  201  A    between atoms: _476  and  _479
REMARK  202  A    between atoms: _479  and  _480
REMARK  203  A    between atoms: _483  and  _485
REMARK  204  A    between atoms: _485  and  _486
REMARK  205  A    between atoms: _485  and  _488
REMARK  206  A    between atoms: _491  and  _493
REMARK  207  A    between atoms: _493  and  _494
REMARK  208  A    between atoms: _493  and  _496
REMARK  209  A    between atoms: _496  and  _497
REMARK  210  A    between atoms: _501  and  _502
REMARK  211  A    between atoms: _507  and  _509
REMARK  212  A    between atoms: _509  and  _510
REMARK  213  A    between atoms: _509  and  _512
REMARK  214  A    between atoms: _512  and  _513
REMARK  215  A    between atoms: _517  and  _518
REMARK  216  A    between atoms: _523  and  _525
REMARK  217  A    between atoms: _525  and  _526
REMARK  218  A    between atoms: _525  and  _528
REMARK  219  A    between atoms: _528  and  _529
REMARK  220  A    between atoms: _532  and  _534
REMARK  221  A    between atoms: _534  and  _535
REMARK  222  A    between atoms: _534  and  _537
REMARK  223  A    between atoms: _537  and  _538
REMARK  224  A    between atoms: _543  and  _545
REMARK  225  A    between atoms: _545  and  _546
REMARK  226  A    between atoms: _545  and  _548
REMARK  227  A    between atoms: _551  and  _553
REMARK  228  A    between atoms: _553  and  _554
REMARK  229  A    between atoms: _553  and  _556
REMARK  230  A    between atoms: _556  and  _557
REMARK  231  A    between atoms: _560  and  _562
REMARK  232  A    between atoms: _562  and  _563
REMARK  233  A    between atoms: _565  and  _567
REMARK  234  A    between atoms: _567  and  _568
REMARK  235  A    between atoms: _567  and  _570
REMARK  236  A    between atoms: _570  and  _571
REMARK  237  A    between atoms: _571  and  _572
REMARK  238  A    between atoms: _572  and  _573
REMARK                            x       y       z     vdW  Elec       q    Type
REMARK                         _______ _______ _______ _____ _____    ______ ____
ROOT
ATOM      1  O   HOH     1       2.762  25.601   6.639  0.00  0.00    +0.000 OA
ENDROOT
TORSDOF 0
REMARK  Name = ../refined-set-2016/4a6c/4a6c_pocket.pdb
REMARK  238 active torsions:
REMARK  status: ('A' for Active; 'I' for Inactive)
REMARK    1  A    between atoms: _1  and  _3
REMARK    2  A    between atoms: _3  and  _4
REMARK    3  A    between atoms: _3  and  _6
REMARK    4  A    between atoms: _6  and  _7
REMARK    5  A    between atoms: _7  and  _8
REMARK    6  A    between atoms: _8  and  _9
REMARK    7  A    between atoms: _18  and  _20
REMARK    8  A    between atoms: _20  and  _21
REMARK    9  A    between atoms: _20  and  _23
REMARK   10  A    between atoms: _23  and  _24
REMARK   11  A    between atoms: _27  and  _29
REMARK   12  A    between atoms: _29  and  _30
REMARK   13  A    between atoms: _29  and  _32
REMARK   14  A    between atoms: _32  and  _33
REMARK   15  A    between atoms: _36  and  _38
REMARK   16  A    between atoms: _38  and  _39
REMARK   17  A    between atoms: _38  and  _41
REMARK   18  A    between atoms: _41  and  _42
REMARK   19  A    between atoms: _45  and  _47
REMARK   20  A    between atoms: _47  and  _48
REMARK   21  A    between atoms: _47  and  _50
REMARK   22  A    between atoms: _50  and  _51
REMARK   23  A    between atoms: _54  and  _56
REMARK   24  A    between atoms: _56  and  _57
REMARK   25  A    between atoms: _59  and  _61
REMARK   26  A    between atoms: _61  and  _62
REMARK   27  A    between atoms: _65  and  _67
REMARK   28  A    between atoms: _67  and  _68
REMARK   29  A    between atoms: _67  and  _70
REMARK   30  A    between atoms: _70  and  _71
REMARK   31  A    between atoms: _74  and  _76
REMARK   32  A    between atoms: _76  and  _77
REMARK   33  A    between atoms: _76  and  _79
REMARK   34  A    between atoms: _79  and  _80
REMARK   35  A    between atoms: _83  and  _85
REMARK   36  A    between atoms: _85  and  _86
REMARK   37  A    between atoms: _85  and  _88
REMARK   38  A    between atoms: _88  and  _89
REMARK   39  A    between atoms: _92  and  _94
REMARK   40  A    between atoms: _94  and  _95
REMARK   41  A    between atoms: _94  and  _97
REMARK   42  A    between atoms: _100  and  _102
REMARK   43  A    between atoms: _102  and  _103
REMARK   44  A    between atoms: _102  and  _105
REMARK   45  A    between atoms: _105  and  _106
REMARK   46  A    between atoms: _106  and  _107
REMARK   47  A    between atoms: _107  and  _108
REMARK   48  A    between atoms: _108  and  _109
REMARK   49  A    between atoms: _113  and  _115
REMARK   50  A    between atoms: _115  and  _116
REMARK   51  A    between atoms: _115  and  _118
REMARK   52  A    between atoms: _118  and  _119
REMARK   53  A    between atoms: _119  and  _120
REMARK   54  A    between atoms: _122  and  _124
REMARK   55  A    between atoms: _124  and  _125
REMARK   56  A    between atoms: _124  and  _127
REMARK   57  A    between atoms: _127  and  _128
REMARK   58  A    between atoms: _131  and  _133
REMARK   59  A    between atoms: _133  and  _134
REMARK   60  A    between atoms: _136  and  _138
REMARK   61  A    between atoms: _138  and  _139
REMARK   62  A    between atoms: _141  and  _143
REMARK   63  A    between atoms: _143  and  _144
REMARK   64  A    between atoms: _143  and  _146
REMARK   65  A    between atoms: _146  and  _147
REMARK   66  A    between atoms: _150  and  _152
REMARK   67  A    between atoms: _152  and  _153
REMARK   68  A    between atoms: _155  and  _157
REMARK   69  A    between atoms: _157  and  _158
REMARK   70  A    between atoms: _160  and  _162
REMARK   71  A    between atoms: _162  and  _163
REMARK   72  A    between atoms: _162  and  _165
REMARK   73  A    between atoms: _165  and  _166
REMARK   74  A    between atoms: _172  and  _174
REMARK   75  A    between atoms: _174  and  _175
REMARK   76  A    between atoms: _174  and  _177
REMARK   77  A    between atoms: _177  and  _178
REMARK   78  A    between atoms: _181  and  _183
REMARK   79  A    between atoms: _183  and  _184
REMARK   80  A    between atoms: _183  and  _186
REMARK   81  A    between atoms: _189  and  _191
REMARK   82  A    between atoms: _191  and  _192
REMARK   83  A    between atoms: _191  and  _194
REMARK   84  A    between atoms: _194  and  _195
REMARK   85  A    between atoms: _198  and  _200
REMARK   86  A    between atoms: _200  and  _201
REMARK   87  A    between atoms: _200  and  _203
REMARK   88  A    between atoms: _203  and  _204
REMARK   89  A    between atoms: _208  and  _209
REMARK   90  A    between atoms: _214  and  _216
REMARK   91  A    between atoms: _216  and  _217
REMARK   92  A    between atoms: _216  and  _219
REMARK   93  A    between atoms: _219  and  _220
REMARK   94  A    between atoms: _223  and  _225
REMARK   95  A    between atoms: _225  and  _226
REMARK   96  A    between atoms: _225  and  _228
REMARK   97  A    between atoms: _228  and  _229
REMARK   98  A    between atoms: _234  and  _236
REMARK   99  A    between atoms: _236  and  _237
REMARK  100  A    between atoms: _236  and  _239
REMARK  101  A    between atoms: _242  and  _244
REMARK  102  A    between atoms: _244  and  _245
REMARK  103  A    between atoms: _244  and  _247
REMARK  104  A    between atoms: _247  and  _248
REMARK  105  A    between atoms: _251  and  _253
REMARK  106  A    between atoms: _253  and  _254
REMARK  107  A    between atoms: _256  and  _258
REMARK  108  A    between atoms: _258  and  _259
REMARK  109  A    between atoms: _258  and  _261
REMARK  110  A    between atoms: _261  and  _262
REMARK  111  A    between atoms: _262  and  _263
REMARK  112  A    between atoms: _263  and  _264
REMARK  113  A    between atoms: _273  and  _275
REMARK  114  A    between atoms: _275  and  _276
REMARK  115  A    between atoms: _275  and  _278
REMARK  116  A    between atoms: _278  and  _279
REMARK  117  A    between atoms: _284  and  _286
REMARK  118  A    between atoms: _286  and  _287
REMARK  119  A    between atoms: _286  and  _289
REMARK  120  A    between atoms: _289  and  _290
REMARK  121  A    between atoms: _290  and  _291
REMARK  122  A    between atoms: _291  and  _292
REMARK  123  A    between atoms: _301  and  _303
REMARK  124  A    between atoms: _303  and  _304
REMARK  125  A    between atoms: _303  and  _306
REMARK  126  A    between atoms: _306  and  _307
REMARK  127  A    between atoms: _310  and  _312
REMARK  128  A    between atoms: _312  and  _313
REMARK  129  A    between atoms: _312  and  _315
REMARK  130  A    between atoms: _315  and  _316
REMARK  131  A    between atoms: _319  and  _321
REMARK  132  A    between atoms: _321  and  _322
REMARK  133  A    between atoms: _321  and  _324
REMARK  134  A    between atoms: _324  and  _325
REMARK  135  A    between atoms: _328  and  _330
REMARK  136  A    between atoms: _330  and  _331
REMARK  137  A    between atoms: _330  and  _333
REMARK  138  A    between atoms: _333  and  _334
REMARK  139  A    between atoms: _337  and  _339
REMARK  140  A    between atoms: _339  and  _340
REMARK  141  A    between atoms: _339  and  _342
REMARK  142  A    between atoms: _342  and  _343
REMARK  143  A    between atoms: _346  and  _348
REMARK  144  A    between atoms: _348  and  _349
REMARK  145  A    between atoms: _351  and  _353
REMARK  146  A    between atoms: _353  and  _354
REMARK  147  A    between atoms: _357  and  _359
REMARK  148  A    between atoms: _359  and  _360
REMARK  149  A    between atoms: _359  and  _362
REMARK  150  A    between atoms: _362  and  _363
REMARK  151  A    between atoms: _366  and  _368
REMARK  152  A    between atoms: _368  and  _369
REMARK  153  A    between atoms: _368  and  _371
REMARK  154  A    between atoms: _371  and  _372
REMARK  155  A    between atoms: _375  and  _377
REMARK  156  A    between atoms: _377  and  _378
REMARK  157  A    between atoms: _377  and  _380
REMARK  158  A    between atoms: _380  and  _381
REMARK  159  A    between atoms: _384  and  _386
REMARK  160  A    between atoms: _386  and  _387
REMARK  161  A    between atoms: _386  and  _389
REMARK  162  A    between atoms: _392  and  _394
REMARK  163  A    between atoms: _394  and  _395
REMARK  164  A    between atoms: _394  and  _397
REMARK  165  A    between atoms: _397  and  _398
REMARK  166  A    between atoms: _398  and  _399
REMARK  167  A    between atoms: _402  and  _404
REMARK  168  A    between atoms: _404  and  _405
REMARK  169  A    between atoms: _404  and  _407
REMARK  170  A    between atoms: _407  and  _408
REMARK  171  A    between atoms: _408  and  _409
REMARK  172  A    between atoms: _409  and  _410
REMARK  173  A    between atoms: _410  and  _411
REMARK  174  A    between atoms: _415  and  _417
REMARK  175  A    between atoms: _417  and  _418
REMARK  176  A    between atoms: _417  and  _420
REMARK  177  A    between atoms: _420  and  _421
REMARK  178  A    between atoms: _421  and  _422
REMARK  179  A    between atoms: _424  and  _426
REMARK  180  A    between atoms: _426  and  _427
REMARK  181  A    between atoms: _426  and  _429
REMARK  182  A    between atoms: _429  and  _430
REMARK  183  A    between atoms: _433  and  _435
REMARK  184  A    between atoms: _435  and  _436
REMARK  185  A    between atoms: _438  and  _440
REMARK  186  A    between atoms: _440  and  _441
REMARK  187  A    between atoms: _443  and  _445
REMARK  188  A    between atoms: _445  and  _446
REMARK  189  A    between atoms: _445  and  _448
REMARK  190  A    between atoms: _448  and  _449
REMARK  191  A    between atoms: _452  and  _454
REMARK  192  A    between atoms: _454  and  _455
REMARK  193  A    between atoms: _457  and  _459
REMARK  194  A    between atoms: _459  and  _460
REMARK  195  A    between atoms: _462  and  _464
REMARK  196  A    between atoms: _464  and  _465
REMARK  197  A    between atoms: _464  and  _467
REMARK  198  A    between atoms: _467  and  _468
REMARK  199  A    between atoms: _474  and  _476
REMARK  200  A    between atoms: _476  and  _477
REMARK  201  A    between atoms: _476  and  _479
REMARK  202  A    between atoms: _479  and  _480
REMARK  203  A    between atoms: _483  and  _485
REMARK  204  A    between atoms: _485  and  _486
REMARK  205  A    between atoms: _485  and  _488
REMARK  206  A    between atoms: _491  and  _493
REMARK  207  A    between atoms: _493  and  _494
REMARK  208  A    between atoms: _493  and  _496
REMARK  209  A    between atoms: _496  and  _497
REMARK  210  A    between atoms: _501  and  _502
REMARK  211  A    between atoms: _507  and  _509
REMARK  212  A    between atoms: _509  and  _510
REMARK  213  A    between atoms: _509  and  _512
REMARK  214  A    between atoms: _512  and  _513
REMARK  215  A    between atoms: _517  and  _518
REMARK  216  A    between atoms: _523  and  _525
REMARK  217  A    between atoms: _525  and  _526
REMARK  218  A    between atoms: _525  and  _528
REMARK  219  A    between atoms: _528  and  _529
REMARK  220  A    between atoms: _532  and  _534
REMARK  221  A    between atoms: _534  and  _535
REMARK  222  A    between atoms: _534  and  _537
REMARK  223  A    between atoms: _537  and  _538
REMARK  224  A    between atoms: _543  and  _545
REMARK  225  A    between atoms: _545  and  _546
REMARK  226  A    between atoms: _545  and  _548
REMARK  227  A    between atoms: _551  and  _553
REMARK  228  A    between atoms: _553  and  _554
REMARK  229  A    between atoms: _553  and  _556
REMARK  230  A    between atoms: _556  and  _557
REMARK  231  A    between atoms: _560  and  _562
REMARK  232  A    between atoms: _562  and  _563
REMARK  233  A    between atoms: _565  and  _567
REMARK  234  A    between atoms: _567  and  _568
REMARK  235  A    between atoms: _567  and  _570
REMARK  236  A    between atoms: _570  and  _571
REMARK  237  A    between atoms: _571  and  _572
REMARK  238  A    between atoms: _572  and  _573
REMARK                            x       y       z     vdW  Elec       q    Type
REMARK                         _______ _______ _______ _____ _____    ______ ____
ROOT
ATOM      1  O   HOH     1       3.807  24.096   4.340  0.00  0.00    +0.000 OA
ENDROOT
TORSDOF 0
REMARK  Name = ../refined-set-2016/4a6c/4a6c_pocket.pdb
REMARK  238 active torsions:
REMARK  status: ('A' for Active; 'I' for Inactive)
REMARK    1  A    between atoms: _1  and  _3
REMARK    2  A    between atoms: _3  and  _4
REMARK    3  A    between atoms: _3  and  _6
REMARK    4  A    between atoms: _6  and  _7
REMARK    5  A    between atoms: _7  and  _8
REMARK    6  A    between atoms: _8  and  _9
REMARK    7  A    between atoms: _18  and  _20
REMARK    8  A    between atoms: _20  and  _21
REMARK    9  A    between atoms: _20  and  _23
REMARK   10  A    between atoms: _23  and  _24
REMARK   11  A    between atoms: _27  and  _29
REMARK   12  A    between atoms: _29  and  _30
REMARK   13  A    between atoms: _29  and  _32
REMARK   14  A    between atoms: _32  and  _33
REMARK   15  A    between atoms: _36  and  _38
REMARK   16  A    between atoms: _38  and  _39
REMARK   17  A    between atoms: _38  and  _41
REMARK   18  A    between atoms: _41  and  _42
REMARK   19  A    between atoms: _45  and  _47
REMARK   20  A    between atoms: _47  and  _48
REMARK   21  A    between atoms: _47  and  _50
REMARK   22  A    between atoms: _50  and  _51
REMARK   23  A    between atoms: _54  and  _56
REMARK   24  A    between atoms: _56  and  _57
REMARK   25  A    between atoms: _59  and  _61
REMARK   26  A    between atoms: _61  and  _62
REMARK   27  A    between atoms: _65  and  _67
REMARK   28  A    between atoms: _67  and  _68
REMARK   29  A    between atoms: _67  and  _70
REMARK   30  A    between atoms: _70  and  _71
REMARK   31  A    between atoms: _74  and  _76
REMARK   32  A    between atoms: _76  and  _77
REMARK   33  A    between atoms: _76  and  _79
REMARK   34  A    between atoms: _79  and  _80
REMARK   35  A    between atoms: _83  and  _85
REMARK   36  A    between atoms: _85  and  _86
REMARK   37  A    between atoms: _85  and  _88
REMARK   38  A    between atoms: _88  and  _89
REMARK   39  A    between atoms: _92  and  _94
REMARK   40  A    between atoms: _94  and  _95
REMARK   41  A    between atoms: _94  and  _97
REMARK   42  A    between atoms: _100  and  _102
REMARK   43  A    between atoms: _102  and  _103
REMARK   44  A    between atoms: _102  and  _105
REMARK   45  A    between atoms: _105  and  _106
REMARK   46  A    between atoms: _106  and  _107
REMARK   47  A    between atoms: _107  and  _108
REMARK   48  A    between atoms: _108  and  _109
REMARK   49  A    between atoms: _113  and  _115
REMARK   50  A    between atoms: _115  and  _116
REMARK   51  A    between atoms: _115  and  _118
REMARK   52  A    between atoms: _118  and  _119
REMARK   53  A    between atoms: _119  and  _120
REMARK   54  A    between atoms: _122  and  _124
REMARK   55  A    between atoms: _124  and  _125
REMARK   56  A    between atoms: _124  and  _127
REMARK   57  A    between atoms: _127  and  _128
REMARK   58  A    between atoms: _131  and  _133
REMARK   59  A    between atoms: _133  and  _134
REMARK   60  A    between atoms: _136  and  _138
REMARK   61  A    between atoms: _138  and  _139
REMARK   62  A    between atoms: _141  and  _143
REMARK   63  A    between atoms: _143  and  _144
REMARK   64  A    between atoms: _143  and  _146
REMARK   65  A    between atoms: _146  and  _147
REMARK   66  A    between atoms: _150  and  _152
REMARK   67  A    between atoms: _152  and  _153
REMARK   68  A    between atoms: _155  and  _157
REMARK   69  A    between atoms: _157  and  _158
REMARK   70  A    between atoms: _160  and  _162
REMARK   71  A    between atoms: _162  and  _163
REMARK   72  A    between atoms: _162  and  _165
REMARK   73  A    between atoms: _165  and  _166
REMARK   74  A    between atoms: _172  and  _174
REMARK   75  A    between atoms: _174  and  _175
REMARK   76  A    between atoms: _174  and  _177
REMARK   77  A    between atoms: _177  and  _178
REMARK   78  A    between atoms: _181  and  _183
REMARK   79  A    between atoms: _183  and  _184
REMARK   80  A    between atoms: _183  and  _186
REMARK   81  A    between atoms: _189  and  _191
REMARK   82  A    between atoms: _191  and  _192
REMARK   83  A    between atoms: _191  and  _194
REMARK   84  A    between atoms: _194  and  _195
REMARK   85  A    between atoms: _198  and  _200
REMARK   86  A    between atoms: _200  and  _201
REMARK   87  A    between atoms: _200  and  _203
REMARK   88  A    between atoms: _203  and  _204
REMARK   89  A    between atoms: _208  and  _209
REMARK   90  A    between atoms: _214  and  _216
REMARK   91  A    between atoms: _216  and  _217
REMARK   92  A    between atoms: _216  and  _219
REMARK   93  A    between atoms: _219  and  _220
REMARK   94  A    between atoms: _223  and  _225
REMARK   95  A    between atoms: _225  and  _226
REMARK   96  A    between atoms: _225  and  _228
REMARK   97  A    between atoms: _228  and  _229
REMARK   98  A    between atoms: _234  and  _236
REMARK   99  A    between atoms: _236  and  _237
REMARK  100  A    between atoms: _236  and  _239
REMARK  101  A    between atoms: _242  and  _244
REMARK  102  A    between atoms: _244  and  _245
REMARK  103  A    between atoms: _244  and  _247
REMARK  104  A    between atoms: _247  and  _248
REMARK  105  A    between atoms: _251  and  _253
REMARK  106  A    between atoms: _253  and  _254
REMARK  107  A    between atoms: _256  and  _258
REMARK  108  A    between atoms: _258  and  _259
REMARK  109  A    between atoms: _258  and  _261
REMARK  110  A    between atoms: _261  and  _262
REMARK  111  A    between atoms: _262  and  _263
REMARK  112  A    between atoms: _263  and  _264
REMARK  113  A    between atoms: _273  and  _275
REMARK  114  A    between atoms: _275  and  _276
REMARK  115  A    between atoms: _275  and  _278
REMARK  116  A    between atoms: _278  and  _279
REMARK  117  A    between atoms: _284  and  _286
REMARK  118  A    between atoms: _286  and  _287
REMARK  119  A    between atoms: _286  and  _289
REMARK  120  A    between atoms: _289  and  _290
REMARK  121  A    between atoms: _290  and  _291
REMARK  122  A    between atoms: _291  and  _292
REMARK  123  A    between atoms: _301  and  _303
REMARK  124  A    between atoms: _303  and  _304
REMARK  125  A    between atoms: _303  and  _306
REMARK  126  A    between atoms: _306  and  _307
REMARK  127  A    between atoms: _310  and  _312
REMARK  128  A    between atoms: _312  and  _313
REMARK  129  A    between atoms: _312  and  _315
REMARK  130  A    between atoms: _315  and  _316
REMARK  131  A    between atoms: _319  and  _321
REMARK  132  A    between atoms: _321  and  _322
REMARK  133  A    between atoms: _321  and  _324
REMARK  134  A    between atoms: _324  and  _325
REMARK  135  A    between atoms: _328  and  _330
REMARK  136  A    between atoms: _330  and  _331
REMARK  137  A    between atoms: _330  and  _333
REMARK  138  A    between atoms: _333  and  _334
REMARK  139  A    between atoms: _337  and  _339
REMARK  140  A    between atoms: _339  and  _340
REMARK  141  A    between atoms: _339  and  _342
REMARK  142  A    between atoms: _342  and  _343
REMARK  143  A    between atoms: _346  and  _348
REMARK  144  A    between atoms: _348  and  _349
REMARK  145  A    between atoms: _351  and  _353
REMARK  146  A    between atoms: _353  and  _354
REMARK  147  A    between atoms: _357  and  _359
REMARK  148  A    between atoms: _359  and  _360
REMARK  149  A    between atoms: _359  and  _362
REMARK  150  A    between atoms: _362  and  _363
REMARK  151  A    between atoms: _366  and  _368
REMARK  152  A    between atoms: _368  and  _369
REMARK  153  A    between atoms: _368  and  _371
REMARK  154  A    between atoms: _371  and  _372
REMARK  155  A    between atoms: _375  and  _377
REMARK  156  A    between atoms: _377  and  _378
REMARK  157  A    between atoms: _377  and  _380
REMARK  158  A    between atoms: _380  and  _381
REMARK  159  A    between atoms: _384  and  _386
REMARK  160  A    between atoms: _386  and  _387
REMARK  161  A    between atoms: _386  and  _389
REMARK  162  A    between atoms: _392  and  _394
REMARK  163  A    between atoms: _394  and  _395
REMARK  164  A    between atoms: _394  and  _397
REMARK  165  A    between atoms: _397  and  _398
REMARK  166  A    between atoms: _398  and  _399
REMARK  167  A    between atoms: _402  and  _404
REMARK  168  A    between atoms: _404  and  _405
REMARK  169  A    between atoms: _404  and  _407
REMARK  170  A    between atoms: _407  and  _408
REMARK  171  A    between atoms: _408  and  _409
REMARK  172  A    between atoms: _409  and  _410
REMARK  173  A    between atoms: _410  and  _411
REMARK  174  A    between atoms: _415  and  _417
REMARK  175  A    between atoms: _417  and  _418
REMARK  176  A    between atoms: _417  and  _420
REMARK  177  A    between atoms: _420  and  _421
REMARK  178  A    between atoms: _421  and  _422
REMARK  179  A    between atoms: _424  and  _426
REMARK  180  A    between atoms: _426  and  _427
REMARK  181  A    between atoms: _426  and  _429
REMARK  182  A    between atoms: _429  and  _430
REMARK  183  A    between atoms: _433  and  _435
REMARK  184  A    between atoms: _435  and  _436
REMARK  185  A    between atoms: _438  and  _440
REMARK  186  A    between atoms: _440  and  _441
REMARK  187  A    between atoms: _443  and  _445
REMARK  188  A    between atoms: _445  and  _446
REMARK  189  A    between atoms: _445  and  _448
REMARK  190  A    between atoms: _448  and  _449
REMARK  191  A    between atoms: _452  and  _454
REMARK  192  A    between atoms: _454  and  _455
REMARK  193  A    between atoms: _457  and  _459
REMARK  194  A    between atoms: _459  and  _460
REMARK  195  A    between atoms: _462  and  _464
REMARK  196  A    between atoms: _464  and  _465
REMARK  197  A    between atoms: _464  and  _467
REMARK  198  A    between atoms: _467  and  _468
REMARK  199  A    between atoms: _474  and  _476
REMARK  200  A    between atoms: _476  and  _477
REMARK  201  A    between atoms: _476  and  _479
REMARK  202  A    between atoms: _479  and  _480
REMARK  203  A    between atoms: _483  and  _485
REMARK  204  A    between atoms: _485  and  _486
REMARK  205  A    between atoms: _485  and  _488
REMARK  206  A    between atoms: _491  and  _493
REMARK  207  A    between atoms: _493  and  _494
REMARK  208  A    between atoms: _493  and  _496
REMARK  209  A    between atoms: _496  and  _497
REMARK  210  A    between atoms: _501  and  _502
REMARK  211  A    between atoms: _507  and  _509
REMARK  212  A    between atoms: _509  and  _510
REMARK  213  A    between atoms: _509  and  _512
REMARK  214  A    between atoms: _512  and  _513
REMARK  215  A    between atoms: _517  and  _518
REMARK  216  A    between atoms: _523  and  _525
REMARK  217  A    between atoms: _525  and  _526
REMARK  218  A    between atoms: _525  and  _528
REMARK  219  A    between atoms: _528  and  _529
REMARK  220  A    between atoms: _532  and  _534
REMARK  221  A    between atoms: _534  and  _535
REMARK  222  A    between atoms: _534  and  _537
REMARK  223  A    between atoms: _537  and  _538
REMARK  224  A    between atoms: _543  and  _545
REMARK  225  A    between atoms: _545  and  _546
REMARK  226  A    between atoms: _545  and  _548
REMARK  227  A    between atoms: _551  and  _553
REMARK  228  A    between atoms: _553  and  _554
REMARK  229  A    between atoms: _553  and  _556
REMARK  230  A    between atoms: _556  and  _557
REMARK  231  A    between atoms: _560  and  _562
REMARK  232  A    between atoms: _562  and  _563
REMARK  233  A    between atoms: _565  and  _567
REMARK  234  A    between atoms: _567  and  _568
REMARK  235  A    between atoms: _567  and  _570
REMARK  236  A    between atoms: _570  and  _571
REMARK  237  A    between atoms: _571  and  _572
REMARK  238  A    between atoms: _572  and  _573
REMARK                            x       y       z     vdW  Elec       q    Type
REMARK                         _______ _______ _______ _____ _____    ______ ____
ROOT
ATOM      1  O   HOH     1      11.640  20.888   6.694  0.00  0.00    +0.000 OA
ENDROOT
TORSDOF 0
REMARK  Name = ../refined-set-2016/4a6c/4a6c_pocket.pdb
REMARK  238 active torsions:
REMARK  status: ('A' for Active; 'I' for Inactive)
REMARK    1  A    between atoms: _1  and  _3
REMARK    2  A    between atoms: _3  and  _4
REMARK    3  A    between atoms: _3  and  _6
REMARK    4  A    between atoms: _6  and  _7
REMARK    5  A    between atoms: _7  and  _8
REMARK    6  A    between atoms: _8  and  _9
REMARK    7  A    between atoms: _18  and  _20
REMARK    8  A    between atoms: _20  and  _21
REMARK    9  A    between atoms: _20  and  _23
REMARK   10  A    between atoms: _23  and  _24
REMARK   11  A    between atoms: _27  and  _29
REMARK   12  A    between atoms: _29  and  _30
REMARK   13  A    between atoms: _29  and  _32
REMARK   14  A    between atoms: _32  and  _33
REMARK   15  A    between atoms: _36  and  _38
REMARK   16  A    between atoms: _38  and  _39
REMARK   17  A    between atoms: _38  and  _41
REMARK   18  A    between atoms: _41  and  _42
REMARK   19  A    between atoms: _45  and  _47
REMARK   20  A    between atoms: _47  and  _48
REMARK   21  A    between atoms: _47  and  _50
REMARK   22  A    between atoms: _50  and  _51
REMARK   23  A    between atoms: _54  and  _56
REMARK   24  A    between atoms: _56  and  _57
REMARK   25  A    between atoms: _59  and  _61
REMARK   26  A    between atoms: _61  and  _62
REMARK   27  A    between atoms: _65  and  _67
REMARK   28  A    between atoms: _67  and  _68
REMARK   29  A    between atoms: _67  and  _70
REMARK   30  A    between atoms: _70  and  _71
REMARK   31  A    between atoms: _74  and  _76
REMARK   32  A    between atoms: _76  and  _77
REMARK   33  A    between atoms: _76  and  _79
REMARK   34  A    between atoms: _79  and  _80
REMARK   35  A    between atoms: _83  and  _85
REMARK   36  A    between atoms: _85  and  _86
REMARK   37  A    between atoms: _85  and  _88
REMARK   38  A    between atoms: _88  and  _89
REMARK   39  A    between atoms: _92  and  _94
REMARK   40  A    between atoms: _94  and  _95
REMARK   41  A    between atoms: _94  and  _97
REMARK   42  A    between atoms: _100  and  _102
REMARK   43  A    between atoms: _102  and  _103
REMARK   44  A    between atoms: _102  and  _105
REMARK   45  A    between atoms: _105  and  _106
REMARK   46  A    between atoms: _106  and  _107
REMARK   47  A    between atoms: _107  and  _108
REMARK   48  A    between atoms: _108  and  _109
REMARK   49  A    between atoms: _113  and  _115
REMARK   50  A    between atoms: _115  and  _116
REMARK   51  A    between atoms: _115  and  _118
REMARK   52  A    between atoms: _118  and  _119
REMARK   53  A    between atoms: _119  and  _120
REMARK   54  A    between atoms: _122  and  _124
REMARK   55  A    between atoms: _124  and  _125
REMARK   56  A    between atoms: _124  and  _127
REMARK   57  A    between atoms: _127  and  _128
REMARK   58  A    between atoms: _131  and  _133
REMARK   59  A    between atoms: _133  and  _134
REMARK   60  A    between atoms: _136  and  _138
REMARK   61  A    between atoms: _138  and  _139
REMARK   62  A    between atoms: _141  and  _143
REMARK   63  A    between atoms: _143  and  _144
REMARK   64  A    between atoms: _143  and  _146
REMARK   65  A    between atoms: _146  and  _147
REMARK   66  A    between atoms: _150  and  _152
REMARK   67  A    between atoms: _152  and  _153
REMARK   68  A    between atoms: _155  and  _157
REMARK   69  A    between atoms: _157  and  _158
REMARK   70  A    between atoms: _160  and  _162
REMARK   71  A    between atoms: _162  and  _163
REMARK   72  A    between atoms: _162  and  _165
REMARK   73  A    between atoms: _165  and  _166
REMARK   74  A    between atoms: _172  and  _174
REMARK   75  A    between atoms: _174  and  _175
REMARK   76  A    between atoms: _174  and  _177
REMARK   77  A    between atoms: _177  and  _178
REMARK   78  A    between atoms: _181  and  _183
REMARK   79  A    between atoms: _183  and  _184
REMARK   80  A    between atoms: _183  and  _186
REMARK   81  A    between atoms: _189  and  _191
REMARK   82  A    between atoms: _191  and  _192
REMARK   83  A    between atoms: _191  and  _194
REMARK   84  A    between atoms: _194  and  _195
REMARK   85  A    between atoms: _198  and  _200
REMARK   86  A    between atoms: _200  and  _201
REMARK   87  A    between atoms: _200  and  _203
REMARK   88  A    between atoms: _203  and  _204
REMARK   89  A    between atoms: _208  and  _209
REMARK   90  A    between atoms: _214  and  _216
REMARK   91  A    between atoms: _216  and  _217
REMARK   92  A    between atoms: _216  and  _219
REMARK   93  A    between atoms: _219  and  _220
REMARK   94  A    between atoms: _223  and  _225
REMARK   95  A    between atoms: _225  and  _226
REMARK   96  A    between atoms: _225  and  _228
REMARK   97  A    between atoms: _228  and  _229
REMARK   98  A    between atoms: _234  and  _236
REMARK   99  A    between atoms: _236  and  _237
REMARK  100  A    between atoms: _236  and  _239
REMARK  101  A    between atoms: _242  and  _244
REMARK  102  A    between atoms: _244  and  _245
REMARK  103  A    between atoms: _244  and  _247
REMARK  104  A    between atoms: _247  and  _248
REMARK  105  A    between atoms: _251  and  _253
REMARK  106  A    between atoms: _253  and  _254
REMARK  107  A    between atoms: _256  and  _258
REMARK  108  A    between atoms: _258  and  _259
REMARK  109  A    between atoms: _258  and  _261
REMARK  110  A    between atoms: _261  and  _262
REMARK  111  A    between atoms: _262  and  _263
REMARK  112  A    between atoms: _263  and  _264
REMARK  113  A    between atoms: _273  and  _275
REMARK  114  A    between atoms: _275  and  _276
REMARK  115  A    between atoms: _275  and  _278
REMARK  116  A    between atoms: _278  and  _279
REMARK  117  A    between atoms: _284  and  _286
REMARK  118  A    between atoms: _286  and  _287
REMARK  119  A    between atoms: _286  and  _289
REMARK  120  A    between atoms: _289  and  _290
REMARK  121  A    between atoms: _290  and  _291
REMARK  122  A    between atoms: _291  and  _292
REMARK  123  A    between atoms: _301  and  _303
REMARK  124  A    between atoms: _303  and  _304
REMARK  125  A    between atoms: _303  and  _306
REMARK  126  A    between atoms: _306  and  _307
REMARK  127  A    between atoms: _310  and  _312
REMARK  128  A    between atoms: _312  and  _313
REMARK  129  A    between atoms: _312  and  _315
REMARK  130  A    between atoms: _315  and  _316
REMARK  131  A    between atoms: _319  and  _321
REMARK  132  A    between atoms: _321  and  _322
REMARK  133  A    between atoms: _321  and  _324
REMARK  134  A    between atoms: _324  and  _325
REMARK  135  A    between atoms: _328  and  _330
REMARK  136  A    between atoms: _330  and  _331
REMARK  137  A    between atoms: _330  and  _333
REMARK  138  A    between atoms: _333  and  _334
REMARK  139  A    between atoms: _337  and  _339
REMARK  140  A    between atoms: _339  and  _340
REMARK  141  A    between atoms: _339  and  _342
REMARK  142  A    between atoms: _342  and  _343
REMARK  143  A    between atoms: _346  and  _348
REMARK  144  A    between atoms: _348  and  _349
REMARK  145  A    between atoms: _351  and  _353
REMARK  146  A    between atoms: _353  and  _354
REMARK  147  A    between atoms: _357  and  _359
REMARK  148  A    between atoms: _359  and  _360
REMARK  149  A    between atoms: _359  and  _362
REMARK  150  A    between atoms: _362  and  _363
REMARK  151  A    between atoms: _366  and  _368
REMARK  152  A    between atoms: _368  and  _369
REMARK  153  A    between atoms: _368  and  _371
REMARK  154  A    between atoms: _371  and  _372
REMARK  155  A    between atoms: _375  and  _377
REMARK  156  A    between atoms: _377  and  _378
REMARK  157  A    between atoms: _377  and  _380
REMARK  158  A    between atoms: _380  and  _381
REMARK  159  A    between atoms: _384  and  _386
REMARK  160  A    between atoms: _386  and  _387
REMARK  161  A    between atoms: _386  and  _389
REMARK  162  A    between atoms: _392  and  _394
REMARK  163  A    between atoms: _394  and  _395
REMARK  164  A    between atoms: _394  and  _397
REMARK  165  A    between atoms: _397  and  _398
REMARK  166  A    between atoms: _398  and  _399
REMARK  167  A    between atoms: _402  and  _404
REMARK  168  A    between atoms: _404  and  _405
REMARK  169  A    between atoms: _404  and  _407
REMARK  170  A    between atoms: _407  and  _408
REMARK  171  A    between atoms: _408  and  _409
REMARK  172  A    between atoms: _409  and  _410
REMARK  173  A    between atoms: _410  and  _411
REMARK  174  A    between atoms: _415  and  _417
REMARK  175  A    between atoms: _417  and  _418
REMARK  176  A    between atoms: _417  and  _420
REMARK  177  A    between atoms: _420  and  _421
REMARK  178  A    between atoms: _421  and  _422
REMARK  179  A    between atoms: _424  and  _426
REMARK  180  A    between atoms: _426  and  _427
REMARK  181  A    between atoms: _426  and  _429
REMARK  182  A    between atoms: _429  and  _430
REMARK  183  A    between atoms: _433  and  _435
REMARK  184  A    between atoms: _435  and  _436
REMARK  185  A    between atoms: _438  and  _440
REMARK  186  A    between atoms: _440  and  _441
REMARK  187  A    between atoms: _443  and  _445
REMARK  188  A    between atoms: _445  and  _446
REMARK  189  A    between atoms: _445  and  _448
REMARK  190  A    between atoms: _448  and  _449
REMARK  191  A    between atoms: _452  and  _454
REMARK  192  A    between atoms: _454  and  _455
REMARK  193  A    between atoms: _457  and  _459
REMARK  194  A    between atoms: _459  and  _460
REMARK  195  A    between atoms: _462  and  _464
REMARK  196  A    between atoms: _464  and  _465
REMARK  197  A    between atoms: _464  and  _467
REMARK  198  A    between atoms: _467  and  _468
REMARK  199  A    between atoms: _474  and  _476
REMARK  200  A    between atoms: _476  and  _477
REMARK  201  A    between atoms: _476  and  _479
REMARK  202  A    between atoms: _479  and  _480
REMARK  203  A    between atoms: _483  and  _485
REMARK  204  A    between atoms: _485  and  _486
REMARK  205  A    between atoms: _485  and  _488
REMARK  206  A    between atoms: _491  and  _493
REMARK  207  A    between atoms: _493  and  _494
REMARK  208  A    between atoms: _493  and  _496
REMARK  209  A    between atoms: _496  and  _497
REMARK  210  A    between atoms: _501  and  _502
REMARK  211  A    between atoms: _507  and  _509
REMARK  212  A    between atoms: _509  and  _510
REMARK  213  A    between atoms: _509  and  _512
REMARK  214  A    between atoms: _512  and  _513
REMARK  215  A    between atoms: _517  and  _518
REMARK  216  A    between atoms: _523  and  _525
REMARK  217  A    between atoms: _525  and  _526
REMARK  218  A    between atoms: _525  and  _528
REMARK  219  A    between atoms: _528  and  _529
REMARK  220  A    between atoms: _532  and  _534
REMARK  221  A    between atoms: _534  and  _535
REMARK  222  A    between atoms: _534  and  _537
REMARK  223  A    between atoms: _537  and  _538
REMARK  224  A    between atoms: _543  and  _545
REMARK  225  A    between atoms: _545  and  _546
REMARK  226  A    between atoms: _545  and  _548
REMARK  227  A    between atoms: _551  and  _553
REMARK  228  A    between atoms: _553  and  _554
REMARK  229  A    between atoms: _553  and  _556
REMARK  230  A    between atoms: _556  and  _557
REMARK  231  A    between atoms: _560  and  _562
REMARK  232  A    between atoms: _562  and  _563
REMARK  233  A    between atoms: _565  and  _567
REMARK  234  A    between atoms: _567  and  _568
REMARK  235  A    between atoms: _567  and  _570
REMARK  236  A    between atoms: _570  and  _571
REMARK  237  A    between atoms: _571  and  _572
REMARK  238  A    between atoms: _572  and  _573
REMARK                            x       y       z     vdW  Elec       q    Type
REMARK                         _______ _______ _______ _____ _____    ______ ____
ROOT
ATOM      1  O   HOH     1       6.954  15.853   3.830  0.00  0.00    +0.000 OA
ENDROOT
TORSDOF 0
REMARK  Name = ../refined-set-2016/4a6c/4a6c_pocket.pdb
REMARK  238 active torsions:
REMARK  status: ('A' for Active; 'I' for Inactive)
REMARK    1  A    between atoms: _1  and  _3
REMARK    2  A    between atoms: _3  and  _4
REMARK    3  A    between atoms: _3  and  _6
REMARK    4  A    between atoms: _6  and  _7
REMARK    5  A    between atoms: _7  and  _8
REMARK    6  A    between atoms: _8  and  _9
REMARK    7  A    between atoms: _18  and  _20
REMARK    8  A    between atoms: _20  and  _21
REMARK    9  A    between atoms: _20  and  _23
REMARK   10  A    between atoms: _23  and  _24
REMARK   11  A    between atoms: _27  and  _29
REMARK   12  A    between atoms: _29  and  _30
REMARK   13  A    between atoms: _29  and  _32
REMARK   14  A    between atoms: _32  and  _33
REMARK   15  A    between atoms: _36  and  _38
REMARK   16  A    between atoms: _38  and  _39
REMARK   17  A    between atoms: _38  and  _41
REMARK   18  A    between atoms: _41  and  _42
REMARK   19  A    between atoms: _45  and  _47
REMARK   20  A    between atoms: _47  and  _48
REMARK   21  A    between atoms: _47  and  _50
REMARK   22  A    between atoms: _50  and  _51
REMARK   23  A    between atoms: _54  and  _56
REMARK   24  A    between atoms: _56  and  _57
REMARK   25  A    between atoms: _59  and  _61
REMARK   26  A    between atoms: _61  and  _62
REMARK   27  A    between atoms: _65  and  _67
REMARK   28  A    between atoms: _67  and  _68
REMARK   29  A    between atoms: _67  and  _70
REMARK   30  A    between atoms: _70  and  _71
REMARK   31  A    between atoms: _74  and  _76
REMARK   32  A    between atoms: _76  and  _77
REMARK   33  A    between atoms: _76  and  _79
REMARK   34  A    between atoms: _79  and  _80
REMARK   35  A    between atoms: _83  and  _85
REMARK   36  A    between atoms: _85  and  _86
REMARK   37  A    between atoms: _85  and  _88
REMARK   38  A    between atoms: _88  and  _89
REMARK   39  A    between atoms: _92  and  _94
REMARK   40  A    between atoms: _94  and  _95
REMARK   41  A    between atoms: _94  and  _97
REMARK   42  A    between atoms: _100  and  _102
REMARK   43  A    between atoms: _102  and  _103
REMARK   44  A    between atoms: _102  and  _105
REMARK   45  A    between atoms: _105  and  _106
REMARK   46  A    between atoms: _106  and  _107
REMARK   47  A    between atoms: _107  and  _108
REMARK   48  A    between atoms: _108  and  _109
REMARK   49  A    between atoms: _113  and  _115
REMARK   50  A    between atoms: _115  and  _116
REMARK   51  A    between atoms: _115  and  _118
REMARK   52  A    between atoms: _118  and  _119
REMARK   53  A    between atoms: _119  and  _120
REMARK   54  A    between atoms: _122  and  _124
REMARK   55  A    between atoms: _124  and  _125
REMARK   56  A    between atoms: _124  and  _127
REMARK   57  A    between atoms: _127  and  _128
REMARK   58  A    between atoms: _131  and  _133
REMARK   59  A    between atoms: _133  and  _134
REMARK   60  A    between atoms: _136  and  _138
REMARK   61  A    between atoms: _138  and  _139
REMARK   62  A    between atoms: _141  and  _143
REMARK   63  A    between atoms: _143  and  _144
REMARK   64  A    between atoms: _143  and  _146
REMARK   65  A    between atoms: _146  and  _147
REMARK   66  A    between atoms: _150  and  _152
REMARK   67  A    between atoms: _152  and  _153
REMARK   68  A    between atoms: _155  and  _157
REMARK   69  A    between atoms: _157  and  _158
REMARK   70  A    between atoms: _160  and  _162
REMARK   71  A    between atoms: _162  and  _163
REMARK   72  A    between atoms: _162  and  _165
REMARK   73  A    between atoms: _165  and  _166
REMARK   74  A    between atoms: _172  and  _174
REMARK   75  A    between atoms: _174  and  _175
REMARK   76  A    between atoms: _174  and  _177
REMARK   77  A    between atoms: _177  and  _178
REMARK   78  A    between atoms: _181  and  _183
REMARK   79  A    between atoms: _183  and  _184
REMARK   80  A    between atoms: _183  and  _186
REMARK   81  A    between atoms: _189  and  _191
REMARK   82  A    between atoms: _191  and  _192
REMARK   83  A    between atoms: _191  and  _194
REMARK   84  A    between atoms: _194  and  _195
REMARK   85  A    between atoms: _198  and  _200
REMARK   86  A    between atoms: _200  and  _201
REMARK   87  A    between atoms: _200  and  _203
REMARK   88  A    between atoms: _203  and  _204
REMARK   89  A    between atoms: _208  and  _209
REMARK   90  A    between atoms: _214  and  _216
REMARK   91  A    between atoms: _216  and  _217
REMARK   92  A    between atoms: _216  and  _219
REMARK   93  A    between atoms: _219  and  _220
REMARK   94  A    between atoms: _223  and  _225
REMARK   95  A    between atoms: _225  and  _226
REMARK   96  A    between atoms: _225  and  _228
REMARK   97  A    between atoms: _228  and  _229
REMARK   98  A    between atoms: _234  and  _236
REMARK   99  A    between atoms: _236  and  _237
REMARK  100  A    between atoms: _236  and  _239
REMARK  101  A    between atoms: _242  and  _244
REMARK  102  A    between atoms: _244  and  _245
REMARK  103  A    between atoms: _244  and  _247
REMARK  104  A    between atoms: _247  and  _248
REMARK  105  A    between atoms: _251  and  _253
REMARK  106  A    between atoms: _253  and  _254
REMARK  107  A    between atoms: _256  and  _258
REMARK  108  A    between atoms: _258  and  _259
REMARK  109  A    between atoms: _258  and  _261
REMARK  110  A    between atoms: _261  and  _262
REMARK  111  A    between atoms: _262  and  _263
REMARK  112  A    between atoms: _263  and  _264
REMARK  113  A    between atoms: _273  and  _275
REMARK  114  A    between atoms: _275  and  _276
REMARK  115  A    between atoms: _275  and  _278
REMARK  116  A    between atoms: _278  and  _279
REMARK  117  A    between atoms: _284  and  _286
REMARK  118  A    between atoms: _286  and  _287
REMARK  119  A    between atoms: _286  and  _289
REMARK  120  A    between atoms: _289  and  _290
REMARK  121  A    between atoms: _290  and  _291
REMARK  122  A    between atoms: _291  and  _292
REMARK  123  A    between atoms: _301  and  _303
REMARK  124  A    between atoms: _303  and  _304
REMARK  125  A    between atoms: _303  and  _306
REMARK  126  A    between atoms: _306  and  _307
REMARK  127  A    between atoms: _310  and  _312
REMARK  128  A    between atoms: _312  and  _313
REMARK  129  A    between atoms: _312  and  _315
REMARK  130  A    between atoms: _315  and  _316
REMARK  131  A    between atoms: _319  and  _321
REMARK  132  A    between atoms: _321  and  _322
REMARK  133  A    between atoms: _321  and  _324
REMARK  134  A    between atoms: _324  and  _325
REMARK  135  A    between atoms: _328  and  _330
REMARK  136  A    between atoms: _330  and  _331
REMARK  137  A    between atoms: _330  and  _333
REMARK  138  A    between atoms: _333  and  _334
REMARK  139  A    between atoms: _337  and  _339
REMARK  140  A    between atoms: _339  and  _340
REMARK  141  A    between atoms: _339  and  _342
REMARK  142  A    between atoms: _342  and  _343
REMARK  143  A    between atoms: _346  and  _348
REMARK  144  A    between atoms: _348  and  _349
REMARK  145  A    between atoms: _351  and  _353
REMARK  146  A    between atoms: _353  and  _354
REMARK  147  A    between atoms: _357  and  _359
REMARK  148  A    between atoms: _359  and  _360
REMARK  149  A    between atoms: _359  and  _362
REMARK  150  A    between atoms: _362  and  _363
REMARK  151  A    between atoms: _366  and  _368
REMARK  152  A    between atoms: _368  and  _369
REMARK  153  A    between atoms: _368  and  _371
REMARK  154  A    between atoms: _371  and  _372
REMARK  155  A    between atoms: _375  and  _377
REMARK  156  A    between atoms: _377  and  _378
REMARK  157  A    between atoms: _377  and  _380
REMARK  158  A    between atoms: _380  and  _381
REMARK  159  A    between atoms: _384  and  _386
REMARK  160  A    between atoms: _386  and  _387
REMARK  161  A    between atoms: _386  and  _389
REMARK  162  A    between atoms: _392  and  _394
REMARK  163  A    between atoms: _394  and  _395
REMARK  164  A    between atoms: _394  and  _397
REMARK  165  A    between atoms: _397  and  _398
REMARK  166  A    between atoms: _398  and  _399
REMARK  167  A    between atoms: _402  and  _404
REMARK  168  A    between atoms: _404  and  _405
REMARK  169  A    between atoms: _404  and  _407
REMARK  170  A    between atoms: _407  and  _408
REMARK  171  A    between atoms: _408  and  _409
REMARK  172  A    between atoms: _409  and  _410
REMARK  173  A    between atoms: _410  and  _411
REMARK  174  A    between atoms: _415  and  _417
REMARK  175  A    between atoms: _417  and  _418
REMARK  176  A    between atoms: _417  and  _420
REMARK  177  A    between atoms: _420  and  _421
REMARK  178  A    between atoms: _421  and  _422
REMARK  179  A    between atoms: _424  and  _426
REMARK  180  A    between atoms: _426  and  _427
REMARK  181  A    between atoms: _426  and  _429
REMARK  182  A    between atoms: _429  and  _430
REMARK  183  A    between atoms: _433  and  _435
REMARK  184  A    between atoms: _435  and  _436
REMARK  185  A    between atoms: _438  and  _440
REMARK  186  A    between atoms: _440  and  _441
REMARK  187  A    between atoms: _443  and  _445
REMARK  188  A    between atoms: _445  and  _446
REMARK  189  A    between atoms: _445  and  _448
REMARK  190  A    between atoms: _448  and  _449
REMARK  191  A    between atoms: _452  and  _454
REMARK  192  A    between atoms: _454  and  _455
REMARK  193  A    between atoms: _457  and  _459
REMARK  194  A    between atoms: _459  and  _460
REMARK  195  A    between atoms: _462  and  _464
REMARK  196  A    between atoms: _464  and  _465
REMARK  197  A    between atoms: _464  and  _467
REMARK  198  A    between atoms: _467  and  _468
REMARK  199  A    between atoms: _474  and  _476
REMARK  200  A    between atoms: _476  and  _477
REMARK  201  A    between atoms: _476  and  _479
REMARK  202  A    between atoms: _479  and  _480
REMARK  203  A    between atoms: _483  and  _485
REMARK  204  A    between atoms: _485  and  _486
REMARK  205  A    between atoms: _485  and  _488
REMARK  206  A    between atoms: _491  and  _493
REMARK  207  A    between atoms: _493  and  _494
REMARK  208  A    between atoms: _493  and  _496
REMARK  209  A    between atoms: _496  and  _497
REMARK  210  A    between atoms: _501  and  _502
REMARK  211  A    between atoms: _507  and  _509
REMARK  212  A    between atoms: _509  and  _510
REMARK  213  A    between atoms: _509  and  _512
REMARK  214  A    between atoms: _512  and  _513
REMARK  215  A    between atoms: _517  and  _518
REMARK  216  A    between atoms: _523  and  _525
REMARK  217  A    between atoms: _525  and  _526
REMARK  218  A    between atoms: _525  and  _528
REMARK  219  A    between atoms: _528  and  _529
REMARK  220  A    between atoms: _532  and  _534
REMARK  221  A    between atoms: _534  and  _535
REMARK  222  A    between atoms: _534  and  _537
REMARK  223  A    between atoms: _537  and  _538
REMARK  224  A    between atoms: _543  and  _545
REMARK  225  A    between atoms: _545  and  _546
REMARK  226  A    between atoms: _545  and  _548
REMARK  227  A    between atoms: _551  and  _553
REMARK  228  A    between atoms: _553  and  _554
REMARK  229  A    between atoms: _553  and  _556
REMARK  230  A    between atoms: _556  and  _557
REMARK  231  A    between atoms: _560  and  _562
REMARK  232  A    between atoms: _562  and  _563
REMARK  233  A    between atoms: _565  and  _567
REMARK  234  A    between atoms: _567  and  _568
REMARK  235  A    between atoms: _567  and  _570
REMARK  236  A    between atoms: _570  and  _571
REMARK  237  A    between atoms: _571  and  _572
REMARK  238  A    between atoms: _572  and  _573
REMARK                            x       y       z     vdW  Elec       q    Type
REMARK                         _______ _______ _______ _____ _____    ______ ____
ROOT
ATOM      1  O   HOH     1      17.575  18.102  16.775  0.00  0.00    +0.000 OA
ENDROOT
TORSDOF 0
REMARK  Name = ../refined-set-2016/4a6c/4a6c_pocket.pdb
REMARK  238 active torsions:
REMARK  status: ('A' for Active; 'I' for Inactive)
REMARK    1  A    between atoms: _1  and  _3
REMARK    2  A    between atoms: _3  and  _4
REMARK    3  A    between atoms: _3  and  _6
REMARK    4  A    between atoms: _6  and  _7
REMARK    5  A    between atoms: _7  and  _8
REMARK    6  A    between atoms: _8  and  _9
REMARK    7  A    between atoms: _18  and  _20
REMARK    8  A    between atoms: _20  and  _21
REMARK    9  A    between atoms: _20  and  _23
REMARK   10  A    between atoms: _23  and  _24
REMARK   11  A    between atoms: _27  and  _29
REMARK   12  A    between atoms: _29  and  _30
REMARK   13  A    between atoms: _29  and  _32
REMARK   14  A    between atoms: _32  and  _33
REMARK   15  A    between atoms: _36  and  _38
REMARK   16  A    between atoms: _38  and  _39
REMARK   17  A    between atoms: _38  and  _41
REMARK   18  A    between atoms: _41  and  _42
REMARK   19  A    between atoms: _45  and  _47
REMARK   20  A    between atoms: _47  and  _48
REMARK   21  A    between atoms: _47  and  _50
REMARK   22  A    between atoms: _50  and  _51
REMARK   23  A    between atoms: _54  and  _56
REMARK   24  A    between atoms: _56  and  _57
REMARK   25  A    between atoms: _59  and  _61
REMARK   26  A    between atoms: _61  and  _62
REMARK   27  A    between atoms: _65  and  _67
REMARK   28  A    between atoms: _67  and  _68
REMARK   29  A    between atoms: _67  and  _70
REMARK   30  A    between atoms: _70  and  _71
REMARK   31  A    between atoms: _74  and  _76
REMARK   32  A    between atoms: _76  and  _77
REMARK   33  A    between atoms: _76  and  _79
REMARK   34  A    between atoms: _79  and  _80
REMARK   35  A    between atoms: _83  and  _85
REMARK   36  A    between atoms: _85  and  _86
REMARK   37  A    between atoms: _85  and  _88
REMARK   38  A    between atoms: _88  and  _89
REMARK   39  A    between atoms: _92  and  _94
REMARK   40  A    between atoms: _94  and  _95
REMARK   41  A    between atoms: _94  and  _97
REMARK   42  A    between atoms: _100  and  _102
REMARK   43  A    between atoms: _102  and  _103
REMARK   44  A    between atoms: _102  and  _105
REMARK   45  A    between atoms: _105  and  _106
REMARK   46  A    between atoms: _106  and  _107
REMARK   47  A    between atoms: _107  and  _108
REMARK   48  A    between atoms: _108  and  _109
REMARK   49  A    between atoms: _113  and  _115
REMARK   50  A    between atoms: _115  and  _116
REMARK   51  A    between atoms: _115  and  _118
REMARK   52  A    between atoms: _118  and  _119
REMARK   53  A    between atoms: _119  and  _120
REMARK   54  A    between atoms: _122  and  _124
REMARK   55  A    between atoms: _124  and  _125
REMARK   56  A    between atoms: _124  and  _127
REMARK   57  A    between atoms: _127  and  _128
REMARK   58  A    between atoms: _131  and  _133
REMARK   59  A    between atoms: _133  and  _134
REMARK   60  A    between atoms: _136  and  _138
REMARK   61  A    between atoms: _138  and  _139
REMARK   62  A    between atoms: _141  and  _143
REMARK   63  A    between atoms: _143  and  _144
REMARK   64  A    between atoms: _143  and  _146
REMARK   65  A    between atoms: _146  and  _147
REMARK   66  A    between atoms: _150  and  _152
REMARK   67  A    between atoms: _152  and  _153
REMARK   68  A    between atoms: _155  and  _157
REMARK   69  A    between atoms: _157  and  _158
REMARK   70  A    between atoms: _160  and  _162
REMARK   71  A    between atoms: _162  and  _163
REMARK   72  A    between atoms: _162  and  _165
REMARK   73  A    between atoms: _165  and  _166
REMARK   74  A    between atoms: _172  and  _174
REMARK   75  A    between atoms: _174  and  _175
REMARK   76  A    between atoms: _174  and  _177
REMARK   77  A    between atoms: _177  and  _178
REMARK   78  A    between atoms: _181  and  _183
REMARK   79  A    between atoms: _183  and  _184
REMARK   80  A    between atoms: _183  and  _186
REMARK   81  A    between atoms: _189  and  _191
REMARK   82  A    between atoms: _191  and  _192
REMARK   83  A    between atoms: _191  and  _194
REMARK   84  A    between atoms: _194  and  _195
REMARK   85  A    between atoms: _198  and  _200
REMARK   86  A    between atoms: _200  and  _201
REMARK   87  A    between atoms: _200  and  _203
REMARK   88  A    between atoms: _203  and  _204
REMARK   89  A    between atoms: _208  and  _209
REMARK   90  A    between atoms: _214  and  _216
REMARK   91  A    between atoms: _216  and  _217
REMARK   92  A    between atoms: _216  and  _219
REMARK   93  A    between atoms: _219  and  _220
REMARK   94  A    between atoms: _223  and  _225
REMARK   95  A    between atoms: _225  and  _226
REMARK   96  A    between atoms: _225  and  _228
REMARK   97  A    between atoms: _228  and  _229
REMARK   98  A    between atoms: _234  and  _236
REMARK   99  A    between atoms: _236  and  _237
REMARK  100  A    between atoms: _236  and  _239
REMARK  101  A    between atoms: _242  and  _244
REMARK  102  A    between atoms: _244  and  _245
REMARK  103  A    between atoms: _244  and  _247
REMARK  104  A    between atoms: _247  and  _248
REMARK  105  A    between atoms: _251  and  _253
REMARK  106  A    between atoms: _253  and  _254
REMARK  107  A    between atoms: _256  and  _258
REMARK  108  A    between atoms: _258  and  _259
REMARK  109  A    between atoms: _258  and  _261
REMARK  110  A    between atoms: _261  and  _262
REMARK  111  A    between atoms: _262  and  _263
REMARK  112  A    between atoms: _263  and  _264
REMARK  113  A    between atoms: _273  and  _275
REMARK  114  A    between atoms: _275  and  _276
REMARK  115  A    between atoms: _275  and  _278
REMARK  116  A    between atoms: _278  and  _279
REMARK  117  A    between atoms: _284  and  _286
REMARK  118  A    between atoms: _286  and  _287
REMARK  119  A    between atoms: _286  and  _289
REMARK  120  A    between atoms: _289  and  _290
REMARK  121  A    between atoms: _290  and  _291
REMARK  122  A    between atoms: _291  and  _292
REMARK  123  A    between atoms: _301  and  _303
REMARK  124  A    between atoms: _303  and  _304
REMARK  125  A    between atoms: _303  and  _306
REMARK  126  A    between atoms: _306  and  _307
REMARK  127  A    between atoms: _310  and  _312
REMARK  128  A    between atoms: _312  and  _313
REMARK  129  A    between atoms: _312  and  _315
REMARK  130  A    between atoms: _315  and  _316
REMARK  131  A    between atoms: _319  and  _321
REMARK  132  A    between atoms: _321  and  _322
REMARK  133  A    between atoms: _321  and  _324
REMARK  134  A    between atoms: _324  and  _325
REMARK  135  A    between atoms: _328  and  _330
REMARK  136  A    between atoms: _330  and  _331
REMARK  137  A    between atoms: _330  and  _333
REMARK  138  A    between atoms: _333  and  _334
REMARK  139  A    between atoms: _337  and  _339
REMARK  140  A    between atoms: _339  and  _340
REMARK  141  A    between atoms: _339  and  _342
REMARK  142  A    between atoms: _342  and  _343
REMARK  143  A    between atoms: _346  and  _348
REMARK  144  A    between atoms: _348  and  _349
REMARK  145  A    between atoms: _351  and  _353
REMARK  146  A    between atoms: _353  and  _354
REMARK  147  A    between atoms: _357  and  _359
REMARK  148  A    between atoms: _359  and  _360
REMARK  149  A    between atoms: _359  and  _362
REMARK  150  A    between atoms: _362  and  _363
REMARK  151  A    between atoms: _366  and  _368
REMARK  152  A    between atoms: _368  and  _369
REMARK  153  A    between atoms: _368  and  _371
REMARK  154  A    between atoms: _371  and  _372
REMARK  155  A    between atoms: _375  and  _377
REMARK  156  A    between atoms: _377  and  _378
REMARK  157  A    between atoms: _377  and  _380
REMARK  158  A    between atoms: _380  and  _381
REMARK  159  A    between atoms: _384  and  _386
REMARK  160  A    between atoms: _386  and  _387
REMARK  161  A    between atoms: _386  and  _389
REMARK  162  A    between atoms: _392  and  _394
REMARK  163  A    between atoms: _394  and  _395
REMARK  164  A    between atoms: _394  and  _397
REMARK  165  A    between atoms: _397  and  _398
REMARK  166  A    between atoms: _398  and  _399
REMARK  167  A    between atoms: _402  and  _404
REMARK  168  A    between atoms: _404  and  _405
REMARK  169  A    between atoms: _404  and  _407
REMARK  170  A    between atoms: _407  and  _408
REMARK  171  A    between atoms: _408  and  _409
REMARK  172  A    between atoms: _409  and  _410
REMARK  173  A    between atoms: _410  and  _411
REMARK  174  A    between atoms: _415  and  _417
REMARK  175  A    between atoms: _417  and  _418
REMARK  176  A    between atoms: _417  and  _420
REMARK  177  A    between atoms: _420  and  _421
REMARK  178  A    between atoms: _421  and  _422
REMARK  179  A    between atoms: _424  and  _426
REMARK  180  A    between atoms: _426  and  _427
REMARK  181  A    between atoms: _426  and  _429
REMARK  182  A    between atoms: _429  and  _430
REMARK  183  A    between atoms: _433  and  _435
REMARK  184  A    between atoms: _435  and  _436
REMARK  185  A    between atoms: _438  and  _440
REMARK  186  A    between atoms: _440  and  _441
REMARK  187  A    between atoms: _443  and  _445
REMARK  188  A    between atoms: _445  and  _446
REMARK  189  A    between atoms: _445  and  _448
REMARK  190  A    between atoms: _448  and  _449
REMARK  191  A    between atoms: _452  and  _454
REMARK  192  A    between atoms: _454  and  _455
REMARK  193  A    between atoms: _457  and  _459
REMARK  194  A    between atoms: _459  and  _460
REMARK  195  A    between atoms: _462  and  _464
REMARK  196  A    between atoms: _464  and  _465
REMARK  197  A    between atoms: _464  and  _467
REMARK  198  A    between atoms: _467  and  _468
REMARK  199  A    between atoms: _474  and  _476
REMARK  200  A    between atoms: _476  and  _477
REMARK  201  A    between atoms: _476  and  _479
REMARK  202  A    between atoms: _479  and  _480
REMARK  203  A    between atoms: _483  and  _485
REMARK  204  A    between atoms: _485  and  _486
REMARK  205  A    between atoms: _485  and  _488
REMARK  206  A    between atoms: _491  and  _493
REMARK  207  A    between atoms: _493  and  _494
REMARK  208  A    between atoms: _493  and  _496
REMARK  209  A    between atoms: _496  and  _497
REMARK  210  A    between atoms: _501  and  _502
REMARK  211  A    between atoms: _507  and  _509
REMARK  212  A    between atoms: _509  and  _510
REMARK  213  A    between atoms: _509  and  _512
REMARK  214  A    between atoms: _512  and  _513
REMARK  215  A    between atoms: _517  and  _518
REMARK  216  A    between atoms: _523  and  _525
REMARK  217  A    between atoms: _525  and  _526
REMARK  218  A    between atoms: _525  and  _528
REMARK  219  A    between atoms: _528  and  _529
REMARK  220  A    between atoms: _532  and  _534
REMARK  221  A    between atoms: _534  and  _535
REMARK  222  A    between atoms: _534  and  _537
REMARK  223  A    between atoms: _537  and  _538
REMARK  224  A    between atoms: _543  and  _545
REMARK  225  A    between atoms: _545  and  _546
REMARK  226  A    between atoms: _545  and  _548
REMARK  227  A    between atoms: _551  and  _553
REMARK  228  A    between atoms: _553  and  _554
REMARK  229  A    between atoms: _553  and  _556
REMARK  230  A    between atoms: _556  and  _557
REMARK  231  A    between atoms: _560  and  _562
REMARK  232  A    between atoms: _562  and  _563
REMARK  233  A    between atoms: _565  and  _567
REMARK  234  A    between atoms: _567  and  _568
REMARK  235  A    between atoms: _567  and  _570
REMARK  236  A    between atoms: _570  and  _571
REMARK  237  A    between atoms: _571  and  _572
REMARK  238  A    between atoms: _572  and  _573
REMARK                            x       y       z     vdW  Elec       q    Type
REMARK                         _______ _______ _______ _____ _____    ______ ____
ROOT
ATOM      1  O   HOH     1      20.134  24.286  16.157  0.00  0.00    +0.000 OA
ENDROOT
TORSDOF 0
REMARK  Name = ../refined-set-2016/4a6c/4a6c_pocket.pdb
REMARK  238 active torsions:
REMARK  status: ('A' for Active; 'I' for Inactive)
REMARK    1  A    between atoms: _1  and  _3
REMARK    2  A    between atoms: _3  and  _4
REMARK    3  A    between atoms: _3  and  _6
REMARK    4  A    between atoms: _6  and  _7
REMARK    5  A    between atoms: _7  and  _8
REMARK    6  A    between atoms: _8  and  _9
REMARK    7  A    between atoms: _18  and  _20
REMARK    8  A    between atoms: _20  and  _21
REMARK    9  A    between atoms: _20  and  _23
REMARK   10  A    between atoms: _23  and  _24
REMARK   11  A    between atoms: _27  and  _29
REMARK   12  A    between atoms: _29  and  _30
REMARK   13  A    between atoms: _29  and  _32
REMARK   14  A    between atoms: _32  and  _33
REMARK   15  A    between atoms: _36  and  _38
REMARK   16  A    between atoms: _38  and  _39
REMARK   17  A    between atoms: _38  and  _41
REMARK   18  A    between atoms: _41  and  _42
REMARK   19  A    between atoms: _45  and  _47
REMARK   20  A    between atoms: _47  and  _48
REMARK   21  A    between atoms: _47  and  _50
REMARK   22  A    between atoms: _50  and  _51
REMARK   23  A    between atoms: _54  and  _56
REMARK   24  A    between atoms: _56  and  _57
REMARK   25  A    between atoms: _59  and  _61
REMARK   26  A    between atoms: _61  and  _62
REMARK   27  A    between atoms: _65  and  _67
REMARK   28  A    between atoms: _67  and  _68
REMARK   29  A    between atoms: _67  and  _70
REMARK   30  A    between atoms: _70  and  _71
REMARK   31  A    between atoms: _74  and  _76
REMARK   32  A    between atoms: _76  and  _77
REMARK   33  A    between atoms: _76  and  _79
REMARK   34  A    between atoms: _79  and  _80
REMARK   35  A    between atoms: _83  and  _85
REMARK   36  A    between atoms: _85  and  _86
REMARK   37  A    between atoms: _85  and  _88
REMARK   38  A    between atoms: _88  and  _89
REMARK   39  A    between atoms: _92  and  _94
REMARK   40  A    between atoms: _94  and  _95
REMARK   41  A    between atoms: _94  and  _97
REMARK   42  A    between atoms: _100  and  _102
REMARK   43  A    between atoms: _102  and  _103
REMARK   44  A    between atoms: _102  and  _105
REMARK   45  A    between atoms: _105  and  _106
REMARK   46  A    between atoms: _106  and  _107
REMARK   47  A    between atoms: _107  and  _108
REMARK   48  A    between atoms: _108  and  _109
REMARK   49  A    between atoms: _113  and  _115
REMARK   50  A    between atoms: _115  and  _116
REMARK   51  A    between atoms: _115  and  _118
REMARK   52  A    between atoms: _118  and  _119
REMARK   53  A    between atoms: _119  and  _120
REMARK   54  A    between atoms: _122  and  _124
REMARK   55  A    between atoms: _124  and  _125
REMARK   56  A    between atoms: _124  and  _127
REMARK   57  A    between atoms: _127  and  _128
REMARK   58  A    between atoms: _131  and  _133
REMARK   59  A    between atoms: _133  and  _134
REMARK   60  A    between atoms: _136  and  _138
REMARK   61  A    between atoms: _138  and  _139
REMARK   62  A    between atoms: _141  and  _143
REMARK   63  A    between atoms: _143  and  _144
REMARK   64  A    between atoms: _143  and  _146
REMARK   65  A    between atoms: _146  and  _147
REMARK   66  A    between atoms: _150  and  _152
REMARK   67  A    between atoms: _152  and  _153
REMARK   68  A    between atoms: _155  and  _157
REMARK   69  A    between atoms: _157  and  _158
REMARK   70  A    between atoms: _160  and  _162
REMARK   71  A    between atoms: _162  and  _163
REMARK   72  A    between atoms: _162  and  _165
REMARK   73  A    between atoms: _165  and  _166
REMARK   74  A    between atoms: _172  and  _174
REMARK   75  A    between atoms: _174  and  _175
REMARK   76  A    between atoms: _174  and  _177
REMARK   77  A    between atoms: _177  and  _178
REMARK   78  A    between atoms: _181  and  _183
REMARK   79  A    between atoms: _183  and  _184
REMARK   80  A    between atoms: _183  and  _186
REMARK   81  A    between atoms: _189  and  _191
REMARK   82  A    between atoms: _191  and  _192
REMARK   83  A    between atoms: _191  and  _194
REMARK   84  A    between atoms: _194  and  _195
REMARK   85  A    between atoms: _198  and  _200
REMARK   86  A    between atoms: _200  and  _201
REMARK   87  A    between atoms: _200  and  _203
REMARK   88  A    between atoms: _203  and  _204
REMARK   89  A    between atoms: _208  and  _209
REMARK   90  A    between atoms: _214  and  _216
REMARK   91  A    between atoms: _216  and  _217
REMARK   92  A    between atoms: _216  and  _219
REMARK   93  A    between atoms: _219  and  _220
REMARK   94  A    between atoms: _223  and  _225
REMARK   95  A    between atoms: _225  and  _226
REMARK   96  A    between atoms: _225  and  _228
REMARK   97  A    between atoms: _228  and  _229
REMARK   98  A    between atoms: _234  and  _236
REMARK   99  A    between atoms: _236  and  _237
REMARK  100  A    between atoms: _236  and  _239
REMARK  101  A    between atoms: _242  and  _244
REMARK  102  A    between atoms: _244  and  _245
REMARK  103  A    between atoms: _244  and  _247
REMARK  104  A    between atoms: _247  and  _248
REMARK  105  A    between atoms: _251  and  _253
REMARK  106  A    between atoms: _253  and  _254
REMARK  107  A    between atoms: _256  and  _258
REMARK  108  A    between atoms: _258  and  _259
REMARK  109  A    between atoms: _258  and  _261
REMARK  110  A    between atoms: _261  and  _262
REMARK  111  A    between atoms: _262  and  _263
REMARK  112  A    between atoms: _263  and  _264
REMARK  113  A    between atoms: _273  and  _275
REMARK  114  A    between atoms: _275  and  _276
REMARK  115  A    between atoms: _275  and  _278
REMARK  116  A    between atoms: _278  and  _279
REMARK  117  A    between atoms: _284  and  _286
REMARK  118  A    between atoms: _286  and  _287
REMARK  119  A    between atoms: _286  and  _289
REMARK  120  A    between atoms: _289  and  _290
REMARK  121  A    between atoms: _290  and  _291
REMARK  122  A    between atoms: _291  and  _292
REMARK  123  A    between atoms: _301  and  _303
REMARK  124  A    between atoms: _303  and  _304
REMARK  125  A    between atoms: _303  and  _306
REMARK  126  A    between atoms: _306  and  _307
REMARK  127  A    between atoms: _310  and  _312
REMARK  128  A    between atoms: _312  and  _313
REMARK  129  A    between atoms: _312  and  _315
REMARK  130  A    between atoms: _315  and  _316
REMARK  131  A    between atoms: _319  and  _321
REMARK  132  A    between atoms: _321  and  _322
REMARK  133  A    between atoms: _321  and  _324
REMARK  134  A    between atoms: _324  and  _325
REMARK  135  A    between atoms: _328  and  _330
REMARK  136  A    between atoms: _330  and  _331
REMARK  137  A    between atoms: _330  and  _333
REMARK  138  A    between atoms: _333  and  _334
REMARK  139  A    between atoms: _337  and  _339
REMARK  140  A    between atoms: _339  and  _340
REMARK  141  A    between atoms: _339  and  _342
REMARK  142  A    between atoms: _342  and  _343
REMARK  143  A    between atoms: _346  and  _348
REMARK  144  A    between atoms: _348  and  _349
REMARK  145  A    between atoms: _351  and  _353
REMARK  146  A    between atoms: _353  and  _354
REMARK  147  A    between atoms: _357  and  _359
REMARK  148  A    between atoms: _359  and  _360
REMARK  149  A    between atoms: _359  and  _362
REMARK  150  A    between atoms: _362  and  _363
REMARK  151  A    between atoms: _366  and  _368
REMARK  152  A    between atoms: _368  and  _369
REMARK  153  A    between atoms: _368  and  _371
REMARK  154  A    between atoms: _371  and  _372
REMARK  155  A    between atoms: _375  and  _377
REMARK  156  A    between atoms: _377  and  _378
REMARK  157  A    between atoms: _377  and  _380
REMARK  158  A    between atoms: _380  and  _381
REMARK  159  A    between atoms: _384  and  _386
REMARK  160  A    between atoms: _386  and  _387
REMARK  161  A    between atoms: _386  and  _389
REMARK  162  A    between atoms: _392  and  _394
REMARK  163  A    between atoms: _394  and  _395
REMARK  164  A    between atoms: _394  and  _397
REMARK  165  A    between atoms: _397  and  _398
REMARK  166  A    between atoms: _398  and  _399
REMARK  167  A    between atoms: _402  and  _404
REMARK  168  A    between atoms: _404  and  _405
REMARK  169  A    between atoms: _404  and  _407
REMARK  170  A    between atoms: _407  and  _408
REMARK  171  A    between atoms: _408  and  _409
REMARK  172  A    between atoms: _409  and  _410
REMARK  173  A    between atoms: _410  and  _411
REMARK  174  A    between atoms: _415  and  _417
REMARK  175  A    between atoms: _417  and  _418
REMARK  176  A    between atoms: _417  and  _420
REMARK  177  A    between atoms: _420  and  _421
REMARK  178  A    between atoms: _421  and  _422
REMARK  179  A    between atoms: _424  and  _426
REMARK  180  A    between atoms: _426  and  _427
REMARK  181  A    between atoms: _426  and  _429
REMARK  182  A    between atoms: _429  and  _430
REMARK  183  A    between atoms: _433  and  _435
REMARK  184  A    between atoms: _435  and  _436
REMARK  185  A    between atoms: _438  and  _440
REMARK  186  A    between atoms: _440  and  _441
REMARK  187  A    between atoms: _443  and  _445
REMARK  188  A    between atoms: _445  and  _446
REMARK  189  A    between atoms: _445  and  _448
REMARK  190  A    between atoms: _448  and  _449
REMARK  191  A    between atoms: _452  and  _454
REMARK  192  A    between atoms: _454  and  _455
REMARK  193  A    between atoms: _457  and  _459
REMARK  194  A    between atoms: _459  and  _460
REMARK  195  A    between atoms: _462  and  _464
REMARK  196  A    between atoms: _464  and  _465
REMARK  197  A    between atoms: _464  and  _467
REMARK  198  A    between atoms: _467  and  _468
REMARK  199  A    between atoms: _474  and  _476
REMARK  200  A    between atoms: _476  and  _477
REMARK  201  A    between atoms: _476  and  _479
REMARK  202  A    between atoms: _479  and  _480
REMARK  203  A    between atoms: _483  and  _485
REMARK  204  A    between atoms: _485  and  _486
REMARK  205  A    between atoms: _485  and  _488
REMARK  206  A    between atoms: _491  and  _493
REMARK  207  A    between atoms: _493  and  _494
REMARK  208  A    between atoms: _493  and  _496
REMARK  209  A    between atoms: _496  and  _497
REMARK  210  A    between atoms: _501  and  _502
REMARK  211  A    between atoms: _507  and  _509
REMARK  212  A    between atoms: _509  and  _510
REMARK  213  A    between atoms: _509  and  _512
REMARK  214  A    between atoms: _512  and  _513
REMARK  215  A    between atoms: _517  and  _518
REMARK  216  A    between atoms: _523  and  _525
REMARK  217  A    between atoms: _525  and  _526
REMARK  218  A    between atoms: _525  and  _528
REMARK  219  A    between atoms: _528  and  _529
REMARK  220  A    between atoms: _532  and  _534
REMARK  221  A    between atoms: _534  and  _535
REMARK  222  A    between atoms: _534  and  _537
REMARK  223  A    between atoms: _537  and  _538
REMARK  224  A    between atoms: _543  and  _545
REMARK  225  A    between atoms: _545  and  _546
REMARK  226  A    between atoms: _545  and  _548
REMARK  227  A    between atoms: _551  and  _553
REMARK  228  A    between atoms: _553  and  _554
REMARK  229  A    between atoms: _553  and  _556
REMARK  230  A    between atoms: _556  and  _557
REMARK  231  A    between atoms: _560  and  _562
REMARK  232  A    between atoms: _562  and  _563
REMARK  233  A    between atoms: _565  and  _567
REMARK  234  A    between atoms: _567  and  _568
REMARK  235  A    between atoms: _567  and  _570
REMARK  236  A    between atoms: _570  and  _571
REMARK  237  A    between atoms: _571  and  _572
REMARK  238  A    between atoms: _572  and  _573
REMARK                            x       y       z     vdW  Elec       q    Type
REMARK                         _______ _______ _______ _____ _____    ______ ____
ROOT
ATOM      1  O   HOH     1       6.955  27.952   0.454  0.00  0.00    +0.000 OA
ENDROOT
TORSDOF 0
REMARK  Name = ../refined-set-2016/4a6c/4a6c_pocket.pdb
REMARK  238 active torsions:
REMARK  status: ('A' for Active; 'I' for Inactive)
REMARK    1  A    between atoms: _1  and  _3
REMARK    2  A    between atoms: _3  and  _4
REMARK    3  A    between atoms: _3  and  _6
REMARK    4  A    between atoms: _6  and  _7
REMARK    5  A    between atoms: _7  and  _8
REMARK    6  A    between atoms: _8  and  _9
REMARK    7  A    between atoms: _18  and  _20
REMARK    8  A    between atoms: _20  and  _21
REMARK    9  A    between atoms: _20  and  _23
REMARK   10  A    between atoms: _23  and  _24
REMARK   11  A    between atoms: _27  and  _29
REMARK   12  A    between atoms: _29  and  _30
REMARK   13  A    between atoms: _29  and  _32
REMARK   14  A    between atoms: _32  and  _33
REMARK   15  A    between atoms: _36  and  _38
REMARK   16  A    between atoms: _38  and  _39
REMARK   17  A    between atoms: _38  and  _41
REMARK   18  A    between atoms: _41  and  _42
REMARK   19  A    between atoms: _45  and  _47
REMARK   20  A    between atoms: _47  and  _48
REMARK   21  A    between atoms: _47  and  _50
REMARK   22  A    between atoms: _50  and  _51
REMARK   23  A    between atoms: _54  and  _56
REMARK   24  A    between atoms: _56  and  _57
REMARK   25  A    between atoms: _59  and  _61
REMARK   26  A    between atoms: _61  and  _62
REMARK   27  A    between atoms: _65  and  _67
REMARK   28  A    between atoms: _67  and  _68
REMARK   29  A    between atoms: _67  and  _70
REMARK   30  A    between atoms: _70  and  _71
REMARK   31  A    between atoms: _74  and  _76
REMARK   32  A    between atoms: _76  and  _77
REMARK   33  A    between atoms: _76  and  _79
REMARK   34  A    between atoms: _79  and  _80
REMARK   35  A    between atoms: _83  and  _85
REMARK   36  A    between atoms: _85  and  _86
REMARK   37  A    between atoms: _85  and  _88
REMARK   38  A    between atoms: _88  and  _89
REMARK   39  A    between atoms: _92  and  _94
REMARK   40  A    between atoms: _94  and  _95
REMARK   41  A    between atoms: _94  and  _97
REMARK   42  A    between atoms: _100  and  _102
REMARK   43  A    between atoms: _102  and  _103
REMARK   44  A    between atoms: _102  and  _105
REMARK   45  A    between atoms: _105  and  _106
REMARK   46  A    between atoms: _106  and  _107
REMARK   47  A    between atoms: _107  and  _108
REMARK   48  A    between atoms: _108  and  _109
REMARK   49  A    between atoms: _113  and  _115
REMARK   50  A    between atoms: _115  and  _116
REMARK   51  A    between atoms: _115  and  _118
REMARK   52  A    between atoms: _118  and  _119
REMARK   53  A    between atoms: _119  and  _120
REMARK   54  A    between atoms: _122  and  _124
REMARK   55  A    between atoms: _124  and  _125
REMARK   56  A    between atoms: _124  and  _127
REMARK   57  A    between atoms: _127  and  _128
REMARK   58  A    between atoms: _131  and  _133
REMARK   59  A    between atoms: _133  and  _134
REMARK   60  A    between atoms: _136  and  _138
REMARK   61  A    between atoms: _138  and  _139
REMARK   62  A    between atoms: _141  and  _143
REMARK   63  A    between atoms: _143  and  _144
REMARK   64  A    between atoms: _143  and  _146
REMARK   65  A    between atoms: _146  and  _147
REMARK   66  A    between atoms: _150  and  _152
REMARK   67  A    between atoms: _152  and  _153
REMARK   68  A    between atoms: _155  and  _157
REMARK   69  A    between atoms: _157  and  _158
REMARK   70  A    between atoms: _160  and  _162
REMARK   71  A    between atoms: _162  and  _163
REMARK   72  A    between atoms: _162  and  _165
REMARK   73  A    between atoms: _165  and  _166
REMARK   74  A    between atoms: _172  and  _174
REMARK   75  A    between atoms: _174  and  _175
REMARK   76  A    between atoms: _174  and  _177
REMARK   77  A    between atoms: _177  and  _178
REMARK   78  A    between atoms: _181  and  _183
REMARK   79  A    between atoms: _183  and  _184
REMARK   80  A    between atoms: _183  and  _186
REMARK   81  A    between atoms: _189  and  _191
REMARK   82  A    between atoms: _191  and  _192
REMARK   83  A    between atoms: _191  and  _194
REMARK   84  A    between atoms: _194  and  _195
REMARK   85  A    between atoms: _198  and  _200
REMARK   86  A    between atoms: _200  and  _201
REMARK   87  A    between atoms: _200  and  _203
REMARK   88  A    between atoms: _203  and  _204
REMARK   89  A    between atoms: _208  and  _209
REMARK   90  A    between atoms: _214  and  _216
REMARK   91  A    between atoms: _216  and  _217
REMARK   92  A    between atoms: _216  and  _219
REMARK   93  A    between atoms: _219  and  _220
REMARK   94  A    between atoms: _223  and  _225
REMARK   95  A    between atoms: _225  and  _226
REMARK   96  A    between atoms: _225  and  _228
REMARK   97  A    between atoms: _228  and  _229
REMARK   98  A    between atoms: _234  and  _236
REMARK   99  A    between atoms: _236  and  _237
REMARK  100  A    between atoms: _236  and  _239
REMARK  101  A    between atoms: _242  and  _244
REMARK  102  A    between atoms: _244  and  _245
REMARK  103  A    between atoms: _244  and  _247
REMARK  104  A    between atoms: _247  and  _248
REMARK  105  A    between atoms: _251  and  _253
REMARK  106  A    between atoms: _253  and  _254
REMARK  107  A    between atoms: _256  and  _258
REMARK  108  A    between atoms: _258  and  _259
REMARK  109  A    between atoms: _258  and  _261
REMARK  110  A    between atoms: _261  and  _262
REMARK  111  A    between atoms: _262  and  _263
REMARK  112  A    between atoms: _263  and  _264
REMARK  113  A    between atoms: _273  and  _275
REMARK  114  A    between atoms: _275  and  _276
REMARK  115  A    between atoms: _275  and  _278
REMARK  116  A    between atoms: _278  and  _279
REMARK  117  A    between atoms: _284  and  _286
REMARK  118  A    between atoms: _286  and  _287
REMARK  119  A    between atoms: _286  and  _289
REMARK  120  A    between atoms: _289  and  _290
REMARK  121  A    between atoms: _290  and  _291
REMARK  122  A    between atoms: _291  and  _292
REMARK  123  A    between atoms: _301  and  _303
REMARK  124  A    between atoms: _303  and  _304
REMARK  125  A    between atoms: _303  and  _306
REMARK  126  A    between atoms: _306  and  _307
REMARK  127  A    between atoms: _310  and  _312
REMARK  128  A    between atoms: _312  and  _313
REMARK  129  A    between atoms: _312  and  _315
REMARK  130  A    between atoms: _315  and  _316
REMARK  131  A    between atoms: _319  and  _321
REMARK  132  A    between atoms: _321  and  _322
REMARK  133  A    between atoms: _321  and  _324
REMARK  134  A    between atoms: _324  and  _325
REMARK  135  A    between atoms: _328  and  _330
REMARK  136  A    between atoms: _330  and  _331
REMARK  137  A    between atoms: _330  and  _333
REMARK  138  A    between atoms: _333  and  _334
REMARK  139  A    between atoms: _337  and  _339
REMARK  140  A    between atoms: _339  and  _340
REMARK  141  A    between atoms: _339  and  _342
REMARK  142  A    between atoms: _342  and  _343
REMARK  143  A    between atoms: _346  and  _348
REMARK  144  A    between atoms: _348  and  _349
REMARK  145  A    between atoms: _351  and  _353
REMARK  146  A    between atoms: _353  and  _354
REMARK  147  A    between atoms: _357  and  _359
REMARK  148  A    between atoms: _359  and  _360
REMARK  149  A    between atoms: _359  and  _362
REMARK  150  A    between atoms: _362  and  _363
REMARK  151  A    between atoms: _366  and  _368
REMARK  152  A    between atoms: _368  and  _369
REMARK  153  A    between atoms: _368  and  _371
REMARK  154  A    between atoms: _371  and  _372
REMARK  155  A    between atoms: _375  and  _377
REMARK  156  A    between atoms: _377  and  _378
REMARK  157  A    between atoms: _377  and  _380
REMARK  158  A    between atoms: _380  and  _381
REMARK  159  A    between atoms: _384  and  _386
REMARK  160  A    between atoms: _386  and  _387
REMARK  161  A    between atoms: _386  and  _389
REMARK  162  A    between atoms: _392  and  _394
REMARK  163  A    between atoms: _394  and  _395
REMARK  164  A    between atoms: _394  and  _397
REMARK  165  A    between atoms: _397  and  _398
REMARK  166  A    between atoms: _398  and  _399
REMARK  167  A    between atoms: _402  and  _404
REMARK  168  A    between atoms: _404  and  _405
REMARK  169  A    between atoms: _404  and  _407
REMARK  170  A    between atoms: _407  and  _408
REMARK  171  A    between atoms: _408  and  _409
REMARK  172  A    between atoms: _409  and  _410
REMARK  173  A    between atoms: _410  and  _411
REMARK  174  A    between atoms: _415  and  _417
REMARK  175  A    between atoms: _417  and  _418
REMARK  176  A    between atoms: _417  and  _420
REMARK  177  A    between atoms: _420  and  _421
REMARK  178  A    between atoms: _421  and  _422
REMARK  179  A    between atoms: _424  and  _426
REMARK  180  A    between atoms: _426  and  _427
REMARK  181  A    between atoms: _426  and  _429
REMARK  182  A    between atoms: _429  and  _430
REMARK  183  A    between atoms: _433  and  _435
REMARK  184  A    between atoms: _435  and  _436
REMARK  185  A    between atoms: _438  and  _440
REMARK  186  A    between atoms: _440  and  _441
REMARK  187  A    between atoms: _443  and  _445
REMARK  188  A    between atoms: _445  and  _446
REMARK  189  A    between atoms: _445  and  _448
REMARK  190  A    between atoms: _448  and  _449
REMARK  191  A    between atoms: _452  and  _454
REMARK  192  A    between atoms: _454  and  _455
REMARK  193  A    between atoms: _457  and  _459
REMARK  194  A    between atoms: _459  and  _460
REMARK  195  A    between atoms: _462  and  _464
REMARK  196  A    between atoms: _464  and  _465
REMARK  197  A    between atoms: _464  and  _467
REMARK  198  A    between atoms: _467  and  _468
REMARK  199  A    between atoms: _474  and  _476
REMARK  200  A    between atoms: _476  and  _477
REMARK  201  A    between atoms: _476  and  _479
REMARK  202  A    between atoms: _479  and  _480
REMARK  203  A    between atoms: _483  and  _485
REMARK  204  A    between atoms: _485  and  _486
REMARK  205  A    between atoms: _485  and  _488
REMARK  206  A    between atoms: _491  and  _493
REMARK  207  A    between atoms: _493  and  _494
REMARK  208  A    between atoms: _493  and  _496
REMARK  209  A    between atoms: _496  and  _497
REMARK  210  A    between atoms: _501  and  _502
REMARK  211  A    between atoms: _507  and  _509
REMARK  212  A    between atoms: _509  and  _510
REMARK  213  A    between atoms: _509  and  _512
REMARK  214  A    between atoms: _512  and  _513
REMARK  215  A    between atoms: _517  and  _518
REMARK  216  A    between atoms: _523  and  _525
REMARK  217  A    between atoms: _525  and  _526
REMARK  218  A    between atoms: _525  and  _528
REMARK  219  A    between atoms: _528  and  _529
REMARK  220  A    between atoms: _532  and  _534
REMARK  221  A    between atoms: _534  and  _535
REMARK  222  A    between atoms: _534  and  _537
REMARK  223  A    between atoms: _537  and  _538
REMARK  224  A    between atoms: _543  and  _545
REMARK  225  A    between atoms: _545  and  _546
REMARK  226  A    between atoms: _545  and  _548
REMARK  227  A    between atoms: _551  and  _553
REMARK  228  A    between atoms: _553  and  _554
REMARK  229  A    between atoms: _553  and  _556
REMARK  230  A    between atoms: _556  and  _557
REMARK  231  A    between atoms: _560  and  _562
REMARK  232  A    between atoms: _562  and  _563
REMARK  233  A    between atoms: _565  and  _567
REMARK  234  A    between atoms: _567  and  _568
REMARK  235  A    between atoms: _567  and  _570
REMARK  236  A    between atoms: _570  and  _571
REMARK  237  A    between atoms: _571  and  _572
REMARK  238  A    between atoms: _572  and  _573
REMARK                            x       y       z     vdW  Elec       q    Type
REMARK                         _______ _______ _______ _____ _____    ______ ____
ROOT
ATOM      1  O   HOH     1      22.251  24.505   4.814  0.00  0.00    +0.000 OA
ENDROOT
TORSDOF 0
REMARK  Name = ../refined-set-2016/4a6c/4a6c_pocket.pdb
REMARK  238 active torsions:
REMARK  status: ('A' for Active; 'I' for Inactive)
REMARK    1  A    between atoms: _1  and  _3
REMARK    2  A    between atoms: _3  and  _4
REMARK    3  A    between atoms: _3  and  _6
REMARK    4  A    between atoms: _6  and  _7
REMARK    5  A    between atoms: _7  and  _8
REMARK    6  A    between atoms: _8  and  _9
REMARK    7  A    between atoms: _18  and  _20
REMARK    8  A    between atoms: _20  and  _21
REMARK    9  A    between atoms: _20  and  _23
REMARK   10  A    between atoms: _23  and  _24
REMARK   11  A    between atoms: _27  and  _29
REMARK   12  A    between atoms: _29  and  _30
REMARK   13  A    between atoms: _29  and  _32
REMARK   14  A    between atoms: _32  and  _33
REMARK   15  A    between atoms: _36  and  _38
REMARK   16  A    between atoms: _38  and  _39
REMARK   17  A    between atoms: _38  and  _41
REMARK   18  A    between atoms: _41  and  _42
REMARK   19  A    between atoms: _45  and  _47
REMARK   20  A    between atoms: _47  and  _48
REMARK   21  A    between atoms: _47  and  _50
REMARK   22  A    between atoms: _50  and  _51
REMARK   23  A    between atoms: _54  and  _56
REMARK   24  A    between atoms: _56  and  _57
REMARK   25  A    between atoms: _59  and  _61
REMARK   26  A    between atoms: _61  and  _62
REMARK   27  A    between atoms: _65  and  _67
REMARK   28  A    between atoms: _67  and  _68
REMARK   29  A    between atoms: _67  and  _70
REMARK   30  A    between atoms: _70  and  _71
REMARK   31  A    between atoms: _74  and  _76
REMARK   32  A    between atoms: _76  and  _77
REMARK   33  A    between atoms: _76  and  _79
REMARK   34  A    between atoms: _79  and  _80
REMARK   35  A    between atoms: _83  and  _85
REMARK   36  A    between atoms: _85  and  _86
REMARK   37  A    between atoms: _85  and  _88
REMARK   38  A    between atoms: _88  and  _89
REMARK   39  A    between atoms: _92  and  _94
REMARK   40  A    between atoms: _94  and  _95
REMARK   41  A    between atoms: _94  and  _97
REMARK   42  A    between atoms: _100  and  _102
REMARK   43  A    between atoms: _102  and  _103
REMARK   44  A    between atoms: _102  and  _105
REMARK   45  A    between atoms: _105  and  _106
REMARK   46  A    between atoms: _106  and  _107
REMARK   47  A    between atoms: _107  and  _108
REMARK   48  A    between atoms: _108  and  _109
REMARK   49  A    between atoms: _113  and  _115
REMARK   50  A    between atoms: _115  and  _116
REMARK   51  A    between atoms: _115  and  _118
REMARK   52  A    between atoms: _118  and  _119
REMARK   53  A    between atoms: _119  and  _120
REMARK   54  A    between atoms: _122  and  _124
REMARK   55  A    between atoms: _124  and  _125
REMARK   56  A    between atoms: _124  and  _127
REMARK   57  A    between atoms: _127  and  _128
REMARK   58  A    between atoms: _131  and  _133
REMARK   59  A    between atoms: _133  and  _134
REMARK   60  A    between atoms: _136  and  _138
REMARK   61  A    between atoms: _138  and  _139
REMARK   62  A    between atoms: _141  and  _143
REMARK   63  A    between atoms: _143  and  _144
REMARK   64  A    between atoms: _143  and  _146
REMARK   65  A    between atoms: _146  and  _147
REMARK   66  A    between atoms: _150  and  _152
REMARK   67  A    between atoms: _152  and  _153
REMARK   68  A    between atoms: _155  and  _157
REMARK   69  A    between atoms: _157  and  _158
REMARK   70  A    between atoms: _160  and  _162
REMARK   71  A    between atoms: _162  and  _163
REMARK   72  A    between atoms: _162  and  _165
REMARK   73  A    between atoms: _165  and  _166
REMARK   74  A    between atoms: _172  and  _174
REMARK   75  A    between atoms: _174  and  _175
REMARK   76  A    between atoms: _174  and  _177
REMARK   77  A    between atoms: _177  and  _178
REMARK   78  A    between atoms: _181  and  _183
REMARK   79  A    between atoms: _183  and  _184
REMARK   80  A    between atoms: _183  and  _186
REMARK   81  A    between atoms: _189  and  _191
REMARK   82  A    between atoms: _191  and  _192
REMARK   83  A    between atoms: _191  and  _194
REMARK   84  A    between atoms: _194  and  _195
REMARK   85  A    between atoms: _198  and  _200
REMARK   86  A    between atoms: _200  and  _201
REMARK   87  A    between atoms: _200  and  _203
REMARK   88  A    between atoms: _203  and  _204
REMARK   89  A    between atoms: _208  and  _209
REMARK   90  A    between atoms: _214  and  _216
REMARK   91  A    between atoms: _216  and  _217
REMARK   92  A    between atoms: _216  and  _219
REMARK   93  A    between atoms: _219  and  _220
REMARK   94  A    between atoms: _223  and  _225
REMARK   95  A    between atoms: _225  and  _226
REMARK   96  A    between atoms: _225  and  _228
REMARK   97  A    between atoms: _228  and  _229
REMARK   98  A    between atoms: _234  and  _236
REMARK   99  A    between atoms: _236  and  _237
REMARK  100  A    between atoms: _236  and  _239
REMARK  101  A    between atoms: _242  and  _244
REMARK  102  A    between atoms: _244  and  _245
REMARK  103  A    between atoms: _244  and  _247
REMARK  104  A    between atoms: _247  and  _248
REMARK  105  A    between atoms: _251  and  _253
REMARK  106  A    between atoms: _253  and  _254
REMARK  107  A    between atoms: _256  and  _258
REMARK  108  A    between atoms: _258  and  _259
REMARK  109  A    between atoms: _258  and  _261
REMARK  110  A    between atoms: _261  and  _262
REMARK  111  A    between atoms: _262  and  _263
REMARK  112  A    between atoms: _263  and  _264
REMARK  113  A    between atoms: _273  and  _275
REMARK  114  A    between atoms: _275  and  _276
REMARK  115  A    between atoms: _275  and  _278
REMARK  116  A    between atoms: _278  and  _279
REMARK  117  A    between atoms: _284  and  _286
REMARK  118  A    between atoms: _286  and  _287
REMARK  119  A    between atoms: _286  and  _289
REMARK  120  A    between atoms: _289  and  _290
REMARK  121  A    between atoms: _290  and  _291
REMARK  122  A    between atoms: _291  and  _292
REMARK  123  A    between atoms: _301  and  _303
REMARK  124  A    between atoms: _303  and  _304
REMARK  125  A    between atoms: _303  and  _306
REMARK  126  A    between atoms: _306  and  _307
REMARK  127  A    between atoms: _310  and  _312
REMARK  128  A    between atoms: _312  and  _313
REMARK  129  A    between atoms: _312  and  _315
REMARK  130  A    between atoms: _315  and  _316
REMARK  131  A    between atoms: _319  and  _321
REMARK  132  A    between atoms: _321  and  _322
REMARK  133  A    between atoms: _321  and  _324
REMARK  134  A    between atoms: _324  and  _325
REMARK  135  A    between atoms: _328  and  _330
REMARK  136  A    between atoms: _330  and  _331
REMARK  137  A    between atoms: _330  and  _333
REMARK  138  A    between atoms: _333  and  _334
REMARK  139  A    between atoms: _337  and  _339
REMARK  140  A    between atoms: _339  and  _340
REMARK  141  A    between atoms: _339  and  _342
REMARK  142  A    between atoms: _342  and  _343
REMARK  143  A    between atoms: _346  and  _348
REMARK  144  A    between atoms: _348  and  _349
REMARK  145  A    between atoms: _351  and  _353
REMARK  146  A    between atoms: _353  and  _354
REMARK  147  A    between atoms: _357  and  _359
REMARK  148  A    between atoms: _359  and  _360
REMARK  149  A    between atoms: _359  and  _362
REMARK  150  A    between atoms: _362  and  _363
REMARK  151  A    between atoms: _366  and  _368
REMARK  152  A    between atoms: _368  and  _369
REMARK  153  A    between atoms: _368  and  _371
REMARK  154  A    between atoms: _371  and  _372
REMARK  155  A    between atoms: _375  and  _377
REMARK  156  A    between atoms: _377  and  _378
REMARK  157  A    between atoms: _377  and  _380
REMARK  158  A    between atoms: _380  and  _381
REMARK  159  A    between atoms: _384  and  _386
REMARK  160  A    between atoms: _386  and  _387
REMARK  161  A    between atoms: _386  and  _389
REMARK  162  A    between atoms: _392  and  _394
REMARK  163  A    between atoms: _394  and  _395
REMARK  164  A    between atoms: _394  and  _397
REMARK  165  A    between atoms: _397  and  _398
REMARK  166  A    between atoms: _398  and  _399
REMARK  167  A    between atoms: _402  and  _404
REMARK  168  A    between atoms: _404  and  _405
REMARK  169  A    between atoms: _404  and  _407
REMARK  170  A    between atoms: _407  and  _408
REMARK  171  A    between atoms: _408  and  _409
REMARK  172  A    between atoms: _409  and  _410
REMARK  173  A    between atoms: _410  and  _411
REMARK  174  A    between atoms: _415  and  _417
REMARK  175  A    between atoms: _417  and  _418
REMARK  176  A    between atoms: _417  and  _420
REMARK  177  A    between atoms: _420  and  _421
REMARK  178  A    between atoms: _421  and  _422
REMARK  179  A    between atoms: _424  and  _426
REMARK  180  A    between atoms: _426  and  _427
REMARK  181  A    between atoms: _426  and  _429
REMARK  182  A    between atoms: _429  and  _430
REMARK  183  A    between atoms: _433  and  _435
REMARK  184  A    between atoms: _435  and  _436
REMARK  185  A    between atoms: _438  and  _440
REMARK  186  A    between atoms: _440  and  _441
REMARK  187  A    between atoms: _443  and  _445
REMARK  188  A    between atoms: _445  and  _446
REMARK  189  A    between atoms: _445  and  _448
REMARK  190  A    between atoms: _448  and  _449
REMARK  191  A    between atoms: _452  and  _454
REMARK  192  A    between atoms: _454  and  _455
REMARK  193  A    between atoms: _457  and  _459
REMARK  194  A    between atoms: _459  and  _460
REMARK  195  A    between atoms: _462  and  _464
REMARK  196  A    between atoms: _464  and  _465
REMARK  197  A    between atoms: _464  and  _467
REMARK  198  A    between atoms: _467  and  _468
REMARK  199  A    between atoms: _474  and  _476
REMARK  200  A    between atoms: _476  and  _477
REMARK  201  A    between atoms: _476  and  _479
REMARK  202  A    between atoms: _479  and  _480
REMARK  203  A    between atoms: _483  and  _485
REMARK  204  A    between atoms: _485  and  _486
REMARK  205  A    between atoms: _485  and  _488
REMARK  206  A    between atoms: _491  and  _493
REMARK  207  A    between atoms: _493  and  _494
REMARK  208  A    between atoms: _493  and  _496
REMARK  209  A    between atoms: _496  and  _497
REMARK  210  A    between atoms: _501  and  _502
REMARK  211  A    between atoms: _507  and  _509
REMARK  212  A    between atoms: _509  and  _510
REMARK  213  A    between atoms: _509  and  _512
REMARK  214  A    between atoms: _512  and  _513
REMARK  215  A    between atoms: _517  and  _518
REMARK  216  A    between atoms: _523  and  _525
REMARK  217  A    between atoms: _525  and  _526
REMARK  218  A    between atoms: _525  and  _528
REMARK  219  A    between atoms: _528  and  _529
REMARK  220  A    between atoms: _532  and  _534
REMARK  221  A    between atoms: _534  and  _535
REMARK  222  A    between atoms: _534  and  _537
REMARK  223  A    between atoms: _537  and  _538
REMARK  224  A    between atoms: _543  and  _545
REMARK  225  A    between atoms: _545  and  _546
REMARK  226  A    between atoms: _545  and  _548
REMARK  227  A    between atoms: _551  and  _553
REMARK  228  A    between atoms: _553  and  _554
REMARK  229  A    between atoms: _553  and  _556
REMARK  230  A    between atoms: _556  and  _557
REMARK  231  A    between atoms: _560  and  _562
REMARK  232  A    between atoms: _562  and  _563
REMARK  233  A    between atoms: _565  and  _567
REMARK  234  A    between atoms: _567  and  _568
REMARK  235  A    between atoms: _567  and  _570
REMARK  236  A    between atoms: _570  and  _571
REMARK  237  A    between atoms: _571  and  _572
REMARK  238  A    between atoms: _572  and  _573
REMARK                            x       y       z     vdW  Elec       q    Type
REMARK                         _______ _______ _______ _____ _____    ______ ____
ROOT
ATOM      1  O   HOH     1      21.072  22.421   6.418  0.00  0.00    +0.000 OA
ENDROOT
TORSDOF 0
REMARK  Name = ../refined-set-2016/4a6c/4a6c_pocket.pdb
REMARK  238 active torsions:
REMARK  status: ('A' for Active; 'I' for Inactive)
REMARK    1  A    between atoms: _1  and  _3
REMARK    2  A    between atoms: _3  and  _4
REMARK    3  A    between atoms: _3  and  _6
REMARK    4  A    between atoms: _6  and  _7
REMARK    5  A    between atoms: _7  and  _8
REMARK    6  A    between atoms: _8  and  _9
REMARK    7  A    between atoms: _18  and  _20
REMARK    8  A    between atoms: _20  and  _21
REMARK    9  A    between atoms: _20  and  _23
REMARK   10  A    between atoms: _23  and  _24
REMARK   11  A    between atoms: _27  and  _29
REMARK   12  A    between atoms: _29  and  _30
REMARK   13  A    between atoms: _29  and  _32
REMARK   14  A    between atoms: _32  and  _33
REMARK   15  A    between atoms: _36  and  _38
REMARK   16  A    between atoms: _38  and  _39
REMARK   17  A    between atoms: _38  and  _41
REMARK   18  A    between atoms: _41  and  _42
REMARK   19  A    between atoms: _45  and  _47
REMARK   20  A    between atoms: _47  and  _48
REMARK   21  A    between atoms: _47  and  _50
REMARK   22  A    between atoms: _50  and  _51
REMARK   23  A    between atoms: _54  and  _56
REMARK   24  A    between atoms: _56  and  _57
REMARK   25  A    between atoms: _59  and  _61
REMARK   26  A    between atoms: _61  and  _62
REMARK   27  A    between atoms: _65  and  _67
REMARK   28  A    between atoms: _67  and  _68
REMARK   29  A    between atoms: _67  and  _70
REMARK   30  A    between atoms: _70  and  _71
REMARK   31  A    between atoms: _74  and  _76
REMARK   32  A    between atoms: _76  and  _77
REMARK   33  A    between atoms: _76  and  _79
REMARK   34  A    between atoms: _79  and  _80
REMARK   35  A    between atoms: _83  and  _85
REMARK   36  A    between atoms: _85  and  _86
REMARK   37  A    between atoms: _85  and  _88
REMARK   38  A    between atoms: _88  and  _89
REMARK   39  A    between atoms: _92  and  _94
REMARK   40  A    between atoms: _94  and  _95
REMARK   41  A    between atoms: _94  and  _97
REMARK   42  A    between atoms: _100  and  _102
REMARK   43  A    between atoms: _102  and  _103
REMARK   44  A    between atoms: _102  and  _105
REMARK   45  A    between atoms: _105  and  _106
REMARK   46  A    between atoms: _106  and  _107
REMARK   47  A    between atoms: _107  and  _108
REMARK   48  A    between atoms: _108  and  _109
REMARK   49  A    between atoms: _113  and  _115
REMARK   50  A    between atoms: _115  and  _116
REMARK   51  A    between atoms: _115  and  _118
REMARK   52  A    between atoms: _118  and  _119
REMARK   53  A    between atoms: _119  and  _120
REMARK   54  A    between atoms: _122  and  _124
REMARK   55  A    between atoms: _124  and  _125
REMARK   56  A    between atoms: _124  and  _127
REMARK   57  A    between atoms: _127  and  _128
REMARK   58  A    between atoms: _131  and  _133
REMARK   59  A    between atoms: _133  and  _134
REMARK   60  A    between atoms: _136  and  _138
REMARK   61  A    between atoms: _138  and  _139
REMARK   62  A    between atoms: _141  and  _143
REMARK   63  A    between atoms: _143  and  _144
REMARK   64  A    between atoms: _143  and  _146
REMARK   65  A    between atoms: _146  and  _147
REMARK   66  A    between atoms: _150  and  _152
REMARK   67  A    between atoms: _152  and  _153
REMARK   68  A    between atoms: _155  and  _157
REMARK   69  A    between atoms: _157  and  _158
REMARK   70  A    between atoms: _160  and  _162
REMARK   71  A    between atoms: _162  and  _163
REMARK   72  A    between atoms: _162  and  _165
REMARK   73  A    between atoms: _165  and  _166
REMARK   74  A    between atoms: _172  and  _174
REMARK   75  A    between atoms: _174  and  _175
REMARK   76  A    between atoms: _174  and  _177
REMARK   77  A    between atoms: _177  and  _178
REMARK   78  A    between atoms: _181  and  _183
REMARK   79  A    between atoms: _183  and  _184
REMARK   80  A    between atoms: _183  and  _186
REMARK   81  A    between atoms: _189  and  _191
REMARK   82  A    between atoms: _191  and  _192
REMARK   83  A    between atoms: _191  and  _194
REMARK   84  A    between atoms: _194  and  _195
REMARK   85  A    between atoms: _198  and  _200
REMARK   86  A    between atoms: _200  and  _201
REMARK   87  A    between atoms: _200  and  _203
REMARK   88  A    between atoms: _203  and  _204
REMARK   89  A    between atoms: _208  and  _209
REMARK   90  A    between atoms: _214  and  _216
REMARK   91  A    between atoms: _216  and  _217
REMARK   92  A    between atoms: _216  and  _219
REMARK   93  A    between atoms: _219  and  _220
REMARK   94  A    between atoms: _223  and  _225
REMARK   95  A    between atoms: _225  and  _226
REMARK   96  A    between atoms: _225  and  _228
REMARK   97  A    between atoms: _228  and  _229
REMARK   98  A    between atoms: _234  and  _236
REMARK   99  A    between atoms: _236  and  _237
REMARK  100  A    between atoms: _236  and  _239
REMARK  101  A    between atoms: _242  and  _244
REMARK  102  A    between atoms: _244  and  _245
REMARK  103  A    between atoms: _244  and  _247
REMARK  104  A    between atoms: _247  and  _248
REMARK  105  A    between atoms: _251  and  _253
REMARK  106  A    between atoms: _253  and  _254
REMARK  107  A    between atoms: _256  and  _258
REMARK  108  A    between atoms: _258  and  _259
REMARK  109  A    between atoms: _258  and  _261
REMARK  110  A    between atoms: _261  and  _262
REMARK  111  A    between atoms: _262  and  _263
REMARK  112  A    between atoms: _263  and  _264
REMARK  113  A    between atoms: _273  and  _275
REMARK  114  A    between atoms: _275  and  _276
REMARK  115  A    between atoms: _275  and  _278
REMARK  116  A    between atoms: _278  and  _279
REMARK  117  A    between atoms: _284  and  _286
REMARK  118  A    between atoms: _286  and  _287
REMARK  119  A    between atoms: _286  and  _289
REMARK  120  A    between atoms: _289  and  _290
REMARK  121  A    between atoms: _290  and  _291
REMARK  122  A    between atoms: _291  and  _292
REMARK  123  A    between atoms: _301  and  _303
REMARK  124  A    between atoms: _303  and  _304
REMARK  125  A    between atoms: _303  and  _306
REMARK  126  A    between atoms: _306  and  _307
REMARK  127  A    between atoms: _310  and  _312
REMARK  128  A    between atoms: _312  and  _313
REMARK  129  A    between atoms: _312  and  _315
REMARK  130  A    between atoms: _315  and  _316
REMARK  131  A    between atoms: _319  and  _321
REMARK  132  A    between atoms: _321  and  _322
REMARK  133  A    between atoms: _321  and  _324
REMARK  134  A    between atoms: _324  and  _325
REMARK  135  A    between atoms: _328  and  _330
REMARK  136  A    between atoms: _330  and  _331
REMARK  137  A    between atoms: _330  and  _333
REMARK  138  A    between atoms: _333  and  _334
REMARK  139  A    between atoms: _337  and  _339
REMARK  140  A    between atoms: _339  and  _340
REMARK  141  A    between atoms: _339  and  _342
REMARK  142  A    between atoms: _342  and  _343
REMARK  143  A    between atoms: _346  and  _348
REMARK  144  A    between atoms: _348  and  _349
REMARK  145  A    between atoms: _351  and  _353
REMARK  146  A    between atoms: _353  and  _354
REMARK  147  A    between atoms: _357  and  _359
REMARK  148  A    between atoms: _359  and  _360
REMARK  149  A    between atoms: _359  and  _362
REMARK  150  A    between atoms: _362  and  _363
REMARK  151  A    between atoms: _366  and  _368
REMARK  152  A    between atoms: _368  and  _369
REMARK  153  A    between atoms: _368  and  _371
REMARK  154  A    between atoms: _371  and  _372
REMARK  155  A    between atoms: _375  and  _377
REMARK  156  A    between atoms: _377  and  _378
REMARK  157  A    between atoms: _377  and  _380
REMARK  158  A    between atoms: _380  and  _381
REMARK  159  A    between atoms: _384  and  _386
REMARK  160  A    between atoms: _386  and  _387
REMARK  161  A    between atoms: _386  and  _389
REMARK  162  A    between atoms: _392  and  _394
REMARK  163  A    between atoms: _394  and  _395
REMARK  164  A    between atoms: _394  and  _397
REMARK  165  A    between atoms: _397  and  _398
REMARK  166  A    between atoms: _398  and  _399
REMARK  167  A    between atoms: _402  and  _404
REMARK  168  A    between atoms: _404  and  _405
REMARK  169  A    between atoms: _404  and  _407
REMARK  170  A    between atoms: _407  and  _408
REMARK  171  A    between atoms: _408  and  _409
REMARK  172  A    between atoms: _409  and  _410
REMARK  173  A    between atoms: _410  and  _411
REMARK  174  A    between atoms: _415  and  _417
REMARK  175  A    between atoms: _417  and  _418
REMARK  176  A    between atoms: _417  and  _420
REMARK  177  A    between atoms: _420  and  _421
REMARK  178  A    between atoms: _421  and  _422
REMARK  179  A    between atoms: _424  and  _426
REMARK  180  A    between atoms: _426  and  _427
REMARK  181  A    between atoms: _426  and  _429
REMARK  182  A    between atoms: _429  and  _430
REMARK  183  A    between atoms: _433  and  _435
REMARK  184  A    between atoms: _435  and  _436
REMARK  185  A    between atoms: _438  and  _440
REMARK  186  A    between atoms: _440  and  _441
REMARK  187  A    between atoms: _443  and  _445
REMARK  188  A    between atoms: _445  and  _446
REMARK  189  A    between atoms: _445  and  _448
REMARK  190  A    between atoms: _448  and  _449
REMARK  191  A    between atoms: _452  and  _454
REMARK  192  A    between atoms: _454  and  _455
REMARK  193  A    between atoms: _457  and  _459
REMARK  194  A    between atoms: _459  and  _460
REMARK  195  A    between atoms: _462  and  _464
REMARK  196  A    between atoms: _464  and  _465
REMARK  197  A    between atoms: _464  and  _467
REMARK  198  A    between atoms: _467  and  _468
REMARK  199  A    between atoms: _474  and  _476
REMARK  200  A    between atoms: _476  and  _477
REMARK  201  A    between atoms: _476  and  _479
REMARK  202  A    between atoms: _479  and  _480
REMARK  203  A    between atoms: _483  and  _485
REMARK  204  A    between atoms: _485  and  _486
REMARK  205  A    between atoms: _485  and  _488
REMARK  206  A    between atoms: _491  and  _493
REMARK  207  A    between atoms: _493  and  _494
REMARK  208  A    between atoms: _493  and  _496
REMARK  209  A    between atoms: _496  and  _497
REMARK  210  A    between atoms: _501  and  _502
REMARK  211  A    between atoms: _507  and  _509
REMARK  212  A    between atoms: _509  and  _510
REMARK  213  A    between atoms: _509  and  _512
REMARK  214  A    between atoms: _512  and  _513
REMARK  215  A    between atoms: _517  and  _518
REMARK  216  A    between atoms: _523  and  _525
REMARK  217  A    between atoms: _525  and  _526
REMARK  218  A    between atoms: _525  and  _528
REMARK  219  A    between atoms: _528  and  _529
REMARK  220  A    between atoms: _532  and  _534
REMARK  221  A    between atoms: _534  and  _535
REMARK  222  A    between atoms: _534  and  _537
REMARK  223  A    between atoms: _537  and  _538
REMARK  224  A    between atoms: _543  and  _545
REMARK  225  A    between atoms: _545  and  _546
REMARK  226  A    between atoms: _545  and  _548
REMARK  227  A    between atoms: _551  and  _553
REMARK  228  A    between atoms: _553  and  _554
REMARK  229  A    between atoms: _553  and  _556
REMARK  230  A    between atoms: _556  and  _557
REMARK  231  A    between atoms: _560  and  _562
REMARK  232  A    between atoms: _562  and  _563
REMARK  233  A    between atoms: _565  and  _567
REMARK  234  A    between atoms: _567  and  _568
REMARK  235  A    between atoms: _567  and  _570
REMARK  236  A    between atoms: _570  and  _571
REMARK  237  A    between atoms: _571  and  _572
REMARK  238  A    between atoms: _572  and  _573
REMARK                            x       y       z     vdW  Elec       q    Type
REMARK                         _______ _______ _______ _____ _____    ______ ____
ROOT
ATOM      1  O   HOH     1      25.123  19.748   0.208  0.00  0.00    +0.000 OA
ENDROOT
TORSDOF 0
REMARK  Name = ../refined-set-2016/4a6c/4a6c_pocket.pdb
REMARK  238 active torsions:
REMARK  status: ('A' for Active; 'I' for Inactive)
REMARK    1  A    between atoms: _1  and  _3
REMARK    2  A    between atoms: _3  and  _4
REMARK    3  A    between atoms: _3  and  _6
REMARK    4  A    between atoms: _6  and  _7
REMARK    5  A    between atoms: _7  and  _8
REMARK    6  A    between atoms: _8  and  _9
REMARK    7  A    between atoms: _18  and  _20
REMARK    8  A    between atoms: _20  and  _21
REMARK    9  A    between atoms: _20  and  _23
REMARK   10  A    between atoms: _23  and  _24
REMARK   11  A    between atoms: _27  and  _29
REMARK   12  A    between atoms: _29  and  _30
REMARK   13  A    between atoms: _29  and  _32
REMARK   14  A    between atoms: _32  and  _33
REMARK   15  A    between atoms: _36  and  _38
REMARK   16  A    between atoms: _38  and  _39
REMARK   17  A    between atoms: _38  and  _41
REMARK   18  A    between atoms: _41  and  _42
REMARK   19  A    between atoms: _45  and  _47
REMARK   20  A    between atoms: _47  and  _48
REMARK   21  A    between atoms: _47  and  _50
REMARK   22  A    between atoms: _50  and  _51
REMARK   23  A    between atoms: _54  and  _56
REMARK   24  A    between atoms: _56  and  _57
REMARK   25  A    between atoms: _59  and  _61
REMARK   26  A    between atoms: _61  and  _62
REMARK   27  A    between atoms: _65  and  _67
REMARK   28  A    between atoms: _67  and  _68
REMARK   29  A    between atoms: _67  and  _70
REMARK   30  A    between atoms: _70  and  _71
REMARK   31  A    between atoms: _74  and  _76
REMARK   32  A    between atoms: _76  and  _77
REMARK   33  A    between atoms: _76  and  _79
REMARK   34  A    between atoms: _79  and  _80
REMARK   35  A    between atoms: _83  and  _85
REMARK   36  A    between atoms: _85  and  _86
REMARK   37  A    between atoms: _85  and  _88
REMARK   38  A    between atoms: _88  and  _89
REMARK   39  A    between atoms: _92  and  _94
REMARK   40  A    between atoms: _94  and  _95
REMARK   41  A    between atoms: _94  and  _97
REMARK   42  A    between atoms: _100  and  _102
REMARK   43  A    between atoms: _102  and  _103
REMARK   44  A    between atoms: _102  and  _105
REMARK   45  A    between atoms: _105  and  _106
REMARK   46  A    between atoms: _106  and  _107
REMARK   47  A    between atoms: _107  and  _108
REMARK   48  A    between atoms: _108  and  _109
REMARK   49  A    between atoms: _113  and  _115
REMARK   50  A    between atoms: _115  and  _116
REMARK   51  A    between atoms: _115  and  _118
REMARK   52  A    between atoms: _118  and  _119
REMARK   53  A    between atoms: _119  and  _120
REMARK   54  A    between atoms: _122  and  _124
REMARK   55  A    between atoms: _124  and  _125
REMARK   56  A    between atoms: _124  and  _127
REMARK   57  A    between atoms: _127  and  _128
REMARK   58  A    between atoms: _131  and  _133
REMARK   59  A    between atoms: _133  and  _134
REMARK   60  A    between atoms: _136  and  _138
REMARK   61  A    between atoms: _138  and  _139
REMARK   62  A    between atoms: _141  and  _143
REMARK   63  A    between atoms: _143  and  _144
REMARK   64  A    between atoms: _143  and  _146
REMARK   65  A    between atoms: _146  and  _147
REMARK   66  A    between atoms: _150  and  _152
REMARK   67  A    between atoms: _152  and  _153
REMARK   68  A    between atoms: _155  and  _157
REMARK   69  A    between atoms: _157  and  _158
REMARK   70  A    between atoms: _160  and  _162
REMARK   71  A    between atoms: _162  and  _163
REMARK   72  A    between atoms: _162  and  _165
REMARK   73  A    between atoms: _165  and  _166
REMARK   74  A    between atoms: _172  and  _174
REMARK   75  A    between atoms: _174  and  _175
REMARK   76  A    between atoms: _174  and  _177
REMARK   77  A    between atoms: _177  and  _178
REMARK   78  A    between atoms: _181  and  _183
REMARK   79  A    between atoms: _183  and  _184
REMARK   80  A    between atoms: _183  and  _186
REMARK   81  A    between atoms: _189  and  _191
REMARK   82  A    between atoms: _191  and  _192
REMARK   83  A    between atoms: _191  and  _194
REMARK   84  A    between atoms: _194  and  _195
REMARK   85  A    between atoms: _198  and  _200
REMARK   86  A    between atoms: _200  and  _201
REMARK   87  A    between atoms: _200  and  _203
REMARK   88  A    between atoms: _203  and  _204
REMARK   89  A    between atoms: _208  and  _209
REMARK   90  A    between atoms: _214  and  _216
REMARK   91  A    between atoms: _216  and  _217
REMARK   92  A    between atoms: _216  and  _219
REMARK   93  A    between atoms: _219  and  _220
REMARK   94  A    between atoms: _223  and  _225
REMARK   95  A    between atoms: _225  and  _226
REMARK   96  A    between atoms: _225  and  _228
REMARK   97  A    between atoms: _228  and  _229
REMARK   98  A    between atoms: _234  and  _236
REMARK   99  A    between atoms: _236  and  _237
REMARK  100  A    between atoms: _236  and  _239
REMARK  101  A    between atoms: _242  and  _244
REMARK  102  A    between atoms: _244  and  _245
REMARK  103  A    between atoms: _244  and  _247
REMARK  104  A    between atoms: _247  and  _248
REMARK  105  A    between atoms: _251  and  _253
REMARK  106  A    between atoms: _253  and  _254
REMARK  107  A    between atoms: _256  and  _258
REMARK  108  A    between atoms: _258  and  _259
REMARK  109  A    between atoms: _258  and  _261
REMARK  110  A    between atoms: _261  and  _262
REMARK  111  A    between atoms: _262  and  _263
REMARK  112  A    between atoms: _263  and  _264
REMARK  113  A    between atoms: _273  and  _275
REMARK  114  A    between atoms: _275  and  _276
REMARK  115  A    between atoms: _275  and  _278
REMARK  116  A    between atoms: _278  and  _279
REMARK  117  A    between atoms: _284  and  _286
REMARK  118  A    between atoms: _286  and  _287
REMARK  119  A    between atoms: _286  and  _289
REMARK  120  A    between atoms: _289  and  _290
REMARK  121  A    between atoms: _290  and  _291
REMARK  122  A    between atoms: _291  and  _292
REMARK  123  A    between atoms: _301  and  _303
REMARK  124  A    between atoms: _303  and  _304
REMARK  125  A    between atoms: _303  and  _306
REMARK  126  A    between atoms: _306  and  _307
REMARK  127  A    between atoms: _310  and  _312
REMARK  128  A    between atoms: _312  and  _313
REMARK  129  A    between atoms: _312  and  _315
REMARK  130  A    between atoms: _315  and  _316
REMARK  131  A    between atoms: _319  and  _321
REMARK  132  A    between atoms: _321  and  _322
REMARK  133  A    between atoms: _321  and  _324
REMARK  134  A    between atoms: _324  and  _325
REMARK  135  A    between atoms: _328  and  _330
REMARK  136  A    between atoms: _330  and  _331
REMARK  137  A    between atoms: _330  and  _333
REMARK  138  A    between atoms: _333  and  _334
REMARK  139  A    between atoms: _337  and  _339
REMARK  140  A    between atoms: _339  and  _340
REMARK  141  A    between atoms: _339  and  _342
REMARK  142  A    between atoms: _342  and  _343
REMARK  143  A    between atoms: _346  and  _348
REMARK  144  A    between atoms: _348  and  _349
REMARK  145  A    between atoms: _351  and  _353
REMARK  146  A    between atoms: _353  and  _354
REMARK  147  A    between atoms: _357  and  _359
REMARK  148  A    between atoms: _359  and  _360
REMARK  149  A    between atoms: _359  and  _362
REMARK  150  A    between atoms: _362  and  _363
REMARK  151  A    between atoms: _366  and  _368
REMARK  152  A    between atoms: _368  and  _369
REMARK  153  A    between atoms: _368  and  _371
REMARK  154  A    between atoms: _371  and  _372
REMARK  155  A    between atoms: _375  and  _377
REMARK  156  A    between atoms: _377  and  _378
REMARK  157  A    between atoms: _377  and  _380
REMARK  158  A    between atoms: _380  and  _381
REMARK  159  A    between atoms: _384  and  _386
REMARK  160  A    between atoms: _386  and  _387
REMARK  161  A    between atoms: _386  and  _389
REMARK  162  A    between atoms: _392  and  _394
REMARK  163  A    between atoms: _394  and  _395
REMARK  164  A    between atoms: _394  and  _397
REMARK  165  A    between atoms: _397  and  _398
REMARK  166  A    between atoms: _398  and  _399
REMARK  167  A    between atoms: _402  and  _404
REMARK  168  A    between atoms: _404  and  _405
REMARK  169  A    between atoms: _404  and  _407
REMARK  170  A    between atoms: _407  and  _408
REMARK  171  A    between atoms: _408  and  _409
REMARK  172  A    between atoms: _409  and  _410
REMARK  173  A    between atoms: _410  and  _411
REMARK  174  A    between atoms: _415  and  _417
REMARK  175  A    between atoms: _417  and  _418
REMARK  176  A    between atoms: _417  and  _420
REMARK  177  A    between atoms: _420  and  _421
REMARK  178  A    between atoms: _421  and  _422
REMARK  179  A    between atoms: _424  and  _426
REMARK  180  A    between atoms: _426  and  _427
REMARK  181  A    between atoms: _426  and  _429
REMARK  182  A    between atoms: _429  and  _430
REMARK  183  A    between atoms: _433  and  _435
REMARK  184  A    between atoms: _435  and  _436
REMARK  185  A    between atoms: _438  and  _440
REMARK  186  A    between atoms: _440  and  _441
REMARK  187  A    between atoms: _443  and  _445
REMARK  188  A    between atoms: _445  and  _446
REMARK  189  A    between atoms: _445  and  _448
REMARK  190  A    between atoms: _448  and  _449
REMARK  191  A    between atoms: _452  and  _454
REMARK  192  A    between atoms: _454  and  _455
REMARK  193  A    between atoms: _457  and  _459
REMARK  194  A    between atoms: _459  and  _460
REMARK  195  A    between atoms: _462  and  _464
REMARK  196  A    between atoms: _464  and  _465
REMARK  197  A    between atoms: _464  and  _467
REMARK  198  A    between atoms: _467  and  _468
REMARK  199  A    between atoms: _474  and  _476
REMARK  200  A    between atoms: _476  and  _477
REMARK  201  A    between atoms: _476  and  _479
REMARK  202  A    between atoms: _479  and  _480
REMARK  203  A    between atoms: _483  and  _485
REMARK  204  A    between atoms: _485  and  _486
REMARK  205  A    between atoms: _485  and  _488
REMARK  206  A    between atoms: _491  and  _493
REMARK  207  A    between atoms: _493  and  _494
REMARK  208  A    between atoms: _493  and  _496
REMARK  209  A    between atoms: _496  and  _497
REMARK  210  A    between atoms: _501  and  _502
REMARK  211  A    between atoms: _507  and  _509
REMARK  212  A    between atoms: _509  and  _510
REMARK  213  A    between atoms: _509  and  _512
REMARK  214  A    between atoms: _512  and  _513
REMARK  215  A    between atoms: _517  and  _518
REMARK  216  A    between atoms: _523  and  _525
REMARK  217  A    between atoms: _525  and  _526
REMARK  218  A    between atoms: _525  and  _528
REMARK  219  A    between atoms: _528  and  _529
REMARK  220  A    between atoms: _532  and  _534
REMARK  221  A    between atoms: _534  and  _535
REMARK  222  A    between atoms: _534  and  _537
REMARK  223  A    between atoms: _537  and  _538
REMARK  224  A    between atoms: _543  and  _545
REMARK  225  A    between atoms: _545  and  _546
REMARK  226  A    between atoms: _545  and  _548
REMARK  227  A    between atoms: _551  and  _553
REMARK  228  A    between atoms: _553  and  _554
REMARK  229  A    between atoms: _553  and  _556
REMARK  230  A    between atoms: _556  and  _557
REMARK  231  A    between atoms: _560  and  _562
REMARK  232  A    between atoms: _562  and  _563
REMARK  233  A    between atoms: _565  and  _567
REMARK  234  A    between atoms: _567  and  _568
REMARK  235  A    between atoms: _567  and  _570
REMARK  236  A    between atoms: _570  and  _571
REMARK  237  A    between atoms: _571  and  _572
REMARK  238  A    between atoms: _572  and  _573
REMARK                            x       y       z     vdW  Elec       q    Type
REMARK                         _______ _______ _______ _____ _____    ______ ____
ROOT
ATOM      1  O   HOH     1      22.423  16.221   4.650  0.00  0.00    +0.000 OA
ENDROOT
TORSDOF 0
REMARK  Name = ../refined-set-2016/4a6c/4a6c_pocket.pdb
REMARK  238 active torsions:
REMARK  status: ('A' for Active; 'I' for Inactive)
REMARK    1  A    between atoms: _1  and  _3
REMARK    2  A    between atoms: _3  and  _4
REMARK    3  A    between atoms: _3  and  _6
REMARK    4  A    between atoms: _6  and  _7
REMARK    5  A    between atoms: _7  and  _8
REMARK    6  A    between atoms: _8  and  _9
REMARK    7  A    between atoms: _18  and  _20
REMARK    8  A    between atoms: _20  and  _21
REMARK    9  A    between atoms: _20  and  _23
REMARK   10  A    between atoms: _23  and  _24
REMARK   11  A    between atoms: _27  and  _29
REMARK   12  A    between atoms: _29  and  _30
REMARK   13  A    between atoms: _29  and  _32
REMARK   14  A    between atoms: _32  and  _33
REMARK   15  A    between atoms: _36  and  _38
REMARK   16  A    between atoms: _38  and  _39
REMARK   17  A    between atoms: _38  and  _41
REMARK   18  A    between atoms: _41  and  _42
REMARK   19  A    between atoms: _45  and  _47
REMARK   20  A    between atoms: _47  and  _48
REMARK   21  A    between atoms: _47  and  _50
REMARK   22  A    between atoms: _50  and  _51
REMARK   23  A    between atoms: _54  and  _56
REMARK   24  A    between atoms: _56  and  _57
REMARK   25  A    between atoms: _59  and  _61
REMARK   26  A    between atoms: _61  and  _62
REMARK   27  A    between atoms: _65  and  _67
REMARK   28  A    between atoms: _67  and  _68
REMARK   29  A    between atoms: _67  and  _70
REMARK   30  A    between atoms: _70  and  _71
REMARK   31  A    between atoms: _74  and  _76
REMARK   32  A    between atoms: _76  and  _77
REMARK   33  A    between atoms: _76  and  _79
REMARK   34  A    between atoms: _79  and  _80
REMARK   35  A    between atoms: _83  and  _85
REMARK   36  A    between atoms: _85  and  _86
REMARK   37  A    between atoms: _85  and  _88
REMARK   38  A    between atoms: _88  and  _89
REMARK   39  A    between atoms: _92  and  _94
REMARK   40  A    between atoms: _94  and  _95
REMARK   41  A    between atoms: _94  and  _97
REMARK   42  A    between atoms: _100  and  _102
REMARK   43  A    between atoms: _102  and  _103
REMARK   44  A    between atoms: _102  and  _105
REMARK   45  A    between atoms: _105  and  _106
REMARK   46  A    between atoms: _106  and  _107
REMARK   47  A    between atoms: _107  and  _108
REMARK   48  A    between atoms: _108  and  _109
REMARK   49  A    between atoms: _113  and  _115
REMARK   50  A    between atoms: _115  and  _116
REMARK   51  A    between atoms: _115  and  _118
REMARK   52  A    between atoms: _118  and  _119
REMARK   53  A    between atoms: _119  and  _120
REMARK   54  A    between atoms: _122  and  _124
REMARK   55  A    between atoms: _124  and  _125
REMARK   56  A    between atoms: _124  and  _127
REMARK   57  A    between atoms: _127  and  _128
REMARK   58  A    between atoms: _131  and  _133
REMARK   59  A    between atoms: _133  and  _134
REMARK   60  A    between atoms: _136  and  _138
REMARK   61  A    between atoms: _138  and  _139
REMARK   62  A    between atoms: _141  and  _143
REMARK   63  A    between atoms: _143  and  _144
REMARK   64  A    between atoms: _143  and  _146
REMARK   65  A    between atoms: _146  and  _147
REMARK   66  A    between atoms: _150  and  _152
REMARK   67  A    between atoms: _152  and  _153
REMARK   68  A    between atoms: _155  and  _157
REMARK   69  A    between atoms: _157  and  _158
REMARK   70  A    between atoms: _160  and  _162
REMARK   71  A    between atoms: _162  and  _163
REMARK   72  A    between atoms: _162  and  _165
REMARK   73  A    between atoms: _165  and  _166
REMARK   74  A    between atoms: _172  and  _174
REMARK   75  A    between atoms: _174  and  _175
REMARK   76  A    between atoms: _174  and  _177
REMARK   77  A    between atoms: _177  and  _178
REMARK   78  A    between atoms: _181  and  _183
REMARK   79  A    between atoms: _183  and  _184
REMARK   80  A    between atoms: _183  and  _186
REMARK   81  A    between atoms: _189  and  _191
REMARK   82  A    between atoms: _191  and  _192
REMARK   83  A    between atoms: _191  and  _194
REMARK   84  A    between atoms: _194  and  _195
REMARK   85  A    between atoms: _198  and  _200
REMARK   86  A    between atoms: _200  and  _201
REMARK   87  A    between atoms: _200  and  _203
REMARK   88  A    between atoms: _203  and  _204
REMARK   89  A    between atoms: _208  and  _209
REMARK   90  A    between atoms: _214  and  _216
REMARK   91  A    between atoms: _216  and  _217
REMARK   92  A    between atoms: _216  and  _219
REMARK   93  A    between atoms: _219  and  _220
REMARK   94  A    between atoms: _223  and  _225
REMARK   95  A    between atoms: _225  and  _226
REMARK   96  A    between atoms: _225  and  _228
REMARK   97  A    between atoms: _228  and  _229
REMARK   98  A    between atoms: _234  and  _236
REMARK   99  A    between atoms: _236  and  _237
REMARK  100  A    between atoms: _236  and  _239
REMARK  101  A    between atoms: _242  and  _244
REMARK  102  A    between atoms: _244  and  _245
REMARK  103  A    between atoms: _244  and  _247
REMARK  104  A    between atoms: _247  and  _248
REMARK  105  A    between atoms: _251  and  _253
REMARK  106  A    between atoms: _253  and  _254
REMARK  107  A    between atoms: _256  and  _258
REMARK  108  A    between atoms: _258  and  _259
REMARK  109  A    between atoms: _258  and  _261
REMARK  110  A    between atoms: _261  and  _262
REMARK  111  A    between atoms: _262  and  _263
REMARK  112  A    between atoms: _263  and  _264
REMARK  113  A    between atoms: _273  and  _275
REMARK  114  A    between atoms: _275  and  _276
REMARK  115  A    between atoms: _275  and  _278
REMARK  116  A    between atoms: _278  and  _279
REMARK  117  A    between atoms: _284  and  _286
REMARK  118  A    between atoms: _286  and  _287
REMARK  119  A    between atoms: _286  and  _289
REMARK  120  A    between atoms: _289  and  _290
REMARK  121  A    between atoms: _290  and  _291
REMARK  122  A    between atoms: _291  and  _292
REMARK  123  A    between atoms: _301  and  _303
REMARK  124  A    between atoms: _303  and  _304
REMARK  125  A    between atoms: _303  and  _306
REMARK  126  A    between atoms: _306  and  _307
REMARK  127  A    between atoms: _310  and  _312
REMARK  128  A    between atoms: _312  and  _313
REMARK  129  A    between atoms: _312  and  _315
REMARK  130  A    between atoms: _315  and  _316
REMARK  131  A    between atoms: _319  and  _321
REMARK  132  A    between atoms: _321  and  _322
REMARK  133  A    between atoms: _321  and  _324
REMARK  134  A    between atoms: _324  and  _325
REMARK  135  A    between atoms: _328  and  _330
REMARK  136  A    between atoms: _330  and  _331
REMARK  137  A    between atoms: _330  and  _333
REMARK  138  A    between atoms: _333  and  _334
REMARK  139  A    between atoms: _337  and  _339
REMARK  140  A    between atoms: _339  and  _340
REMARK  141  A    between atoms: _339  and  _342
REMARK  142  A    between atoms: _342  and  _343
REMARK  143  A    between atoms: _346  and  _348
REMARK  144  A    between atoms: _348  and  _349
REMARK  145  A    between atoms: _351  and  _353
REMARK  146  A    between atoms: _353  and  _354
REMARK  147  A    between atoms: _357  and  _359
REMARK  148  A    between atoms: _359  and  _360
REMARK  149  A    between atoms: _359  and  _362
REMARK  150  A    between atoms: _362  and  _363
REMARK  151  A    between atoms: _366  and  _368
REMARK  152  A    between atoms: _368  and  _369
REMARK  153  A    between atoms: _368  and  _371
REMARK  154  A    between atoms: _371  and  _372
REMARK  155  A    between atoms: _375  and  _377
REMARK  156  A    between atoms: _377  and  _378
REMARK  157  A    between atoms: _377  and  _380
REMARK  158  A    between atoms: _380  and  _381
REMARK  159  A    between atoms: _384  and  _386
REMARK  160  A    between atoms: _386  and  _387
REMARK  161  A    between atoms: _386  and  _389
REMARK  162  A    between atoms: _392  and  _394
REMARK  163  A    between atoms: _394  and  _395
REMARK  164  A    between atoms: _394  and  _397
REMARK  165  A    between atoms: _397  and  _398
REMARK  166  A    between atoms: _398  and  _399
REMARK  167  A    between atoms: _402  and  _404
REMARK  168  A    between atoms: _404  and  _405
REMARK  169  A    between atoms: _404  and  _407
REMARK  170  A    between atoms: _407  and  _408
REMARK  171  A    between atoms: _408  and  _409
REMARK  172  A    between atoms: _409  and  _410
REMARK  173  A    between atoms: _410  and  _411
REMARK  174  A    between atoms: _415  and  _417
REMARK  175  A    between atoms: _417  and  _418
REMARK  176  A    between atoms: _417  and  _420
REMARK  177  A    between atoms: _420  and  _421
REMARK  178  A    between atoms: _421  and  _422
REMARK  179  A    between atoms: _424  and  _426
REMARK  180  A    between atoms: _426  and  _427
REMARK  181  A    between atoms: _426  and  _429
REMARK  182  A    between atoms: _429  and  _430
REMARK  183  A    between atoms: _433  and  _435
REMARK  184  A    between atoms: _435  and  _436
REMARK  185  A    between atoms: _438  and  _440
REMARK  186  A    between atoms: _440  and  _441
REMARK  187  A    between atoms: _443  and  _445
REMARK  188  A    between atoms: _445  and  _446
REMARK  189  A    between atoms: _445  and  _448
REMARK  190  A    between atoms: _448  and  _449
REMARK  191  A    between atoms: _452  and  _454
REMARK  192  A    between atoms: _454  and  _455
REMARK  193  A    between atoms: _457  and  _459
REMARK  194  A    between atoms: _459  and  _460
REMARK  195  A    between atoms: _462  and  _464
REMARK  196  A    between atoms: _464  and  _465
REMARK  197  A    between atoms: _464  and  _467
REMARK  198  A    between atoms: _467  and  _468
REMARK  199  A    between atoms: _474  and  _476
REMARK  200  A    between atoms: _476  and  _477
REMARK  201  A    between atoms: _476  and  _479
REMARK  202  A    between atoms: _479  and  _480
REMARK  203  A    between atoms: _483  and  _485
REMARK  204  A    between atoms: _485  and  _486
REMARK  205  A    between atoms: _485  and  _488
REMARK  206  A    between atoms: _491  and  _493
REMARK  207  A    between atoms: _493  and  _494
REMARK  208  A    between atoms: _493  and  _496
REMARK  209  A    between atoms: _496  and  _497
REMARK  210  A    between atoms: _501  and  _502
REMARK  211  A    between atoms: _507  and  _509
REMARK  212  A    between atoms: _509  and  _510
REMARK  213  A    between atoms: _509  and  _512
REMARK  214  A    between atoms: _512  and  _513
REMARK  215  A    between atoms: _517  and  _518
REMARK  216  A    between atoms: _523  and  _525
REMARK  217  A    between atoms: _525  and  _526
REMARK  218  A    between atoms: _525  and  _528
REMARK  219  A    between atoms: _528  and  _529
REMARK  220  A    between atoms: _532  and  _534
REMARK  221  A    between atoms: _534  and  _535
REMARK  222  A    between atoms: _534  and  _537
REMARK  223  A    between atoms: _537  and  _538
REMARK  224  A    between atoms: _543  and  _545
REMARK  225  A    between atoms: _545  and  _546
REMARK  226  A    between atoms: _545  and  _548
REMARK  227  A    between atoms: _551  and  _553
REMARK  228  A    between atoms: _553  and  _554
REMARK  229  A    between atoms: _553  and  _556
REMARK  230  A    between atoms: _556  and  _557
REMARK  231  A    between atoms: _560  and  _562
REMARK  232  A    between atoms: _562  and  _563
REMARK  233  A    between atoms: _565  and  _567
REMARK  234  A    between atoms: _567  and  _568
REMARK  235  A    between atoms: _567  and  _570
REMARK  236  A    between atoms: _570  and  _571
REMARK  237  A    between atoms: _571  and  _572
REMARK  238  A    between atoms: _572  and  _573
REMARK                            x       y       z     vdW  Elec       q    Type
REMARK                         _______ _______ _______ _____ _____    ______ ____
ROOT
ATOM      1  O   HOH     1      23.694  15.856   1.794  0.00  0.00    +0.000 OA
ENDROOT
TORSDOF 0
REMARK  Name = ../refined-set-2016/4a6c/4a6c_pocket.pdb
REMARK  238 active torsions:
REMARK  status: ('A' for Active; 'I' for Inactive)
REMARK    1  A    between atoms: _1  and  _3
REMARK    2  A    between atoms: _3  and  _4
REMARK    3  A    between atoms: _3  and  _6
REMARK    4  A    between atoms: _6  and  _7
REMARK    5  A    between atoms: _7  and  _8
REMARK    6  A    between atoms: _8  and  _9
REMARK    7  A    between atoms: _18  and  _20
REMARK    8  A    between atoms: _20  and  _21
REMARK    9  A    between atoms: _20  and  _23
REMARK   10  A    between atoms: _23  and  _24
REMARK   11  A    between atoms: _27  and  _29
REMARK   12  A    between atoms: _29  and  _30
REMARK   13  A    between atoms: _29  and  _32
REMARK   14  A    between atoms: _32  and  _33
REMARK   15  A    between atoms: _36  and  _38
REMARK   16  A    between atoms: _38  and  _39
REMARK   17  A    between atoms: _38  and  _41
REMARK   18  A    between atoms: _41  and  _42
REMARK   19  A    between atoms: _45  and  _47
REMARK   20  A    between atoms: _47  and  _48
REMARK   21  A    between atoms: _47  and  _50
REMARK   22  A    between atoms: _50  and  _51
REMARK   23  A    between atoms: _54  and  _56
REMARK   24  A    between atoms: _56  and  _57
REMARK   25  A    between atoms: _59  and  _61
REMARK   26  A    between atoms: _61  and  _62
REMARK   27  A    between atoms: _65  and  _67
REMARK   28  A    between atoms: _67  and  _68
REMARK   29  A    between atoms: _67  and  _70
REMARK   30  A    between atoms: _70  and  _71
REMARK   31  A    between atoms: _74  and  _76
REMARK   32  A    between atoms: _76  and  _77
REMARK   33  A    between atoms: _76  and  _79
REMARK   34  A    between atoms: _79  and  _80
REMARK   35  A    between atoms: _83  and  _85
REMARK   36  A    between atoms: _85  and  _86
REMARK   37  A    between atoms: _85  and  _88
REMARK   38  A    between atoms: _88  and  _89
REMARK   39  A    between atoms: _92  and  _94
REMARK   40  A    between atoms: _94  and  _95
REMARK   41  A    between atoms: _94  and  _97
REMARK   42  A    between atoms: _100  and  _102
REMARK   43  A    between atoms: _102  and  _103
REMARK   44  A    between atoms: _102  and  _105
REMARK   45  A    between atoms: _105  and  _106
REMARK   46  A    between atoms: _106  and  _107
REMARK   47  A    between atoms: _107  and  _108
REMARK   48  A    between atoms: _108  and  _109
REMARK   49  A    between atoms: _113  and  _115
REMARK   50  A    between atoms: _115  and  _116
REMARK   51  A    between atoms: _115  and  _118
REMARK   52  A    between atoms: _118  and  _119
REMARK   53  A    between atoms: _119  and  _120
REMARK   54  A    between atoms: _122  and  _124
REMARK   55  A    between atoms: _124  and  _125
REMARK   56  A    between atoms: _124  and  _127
REMARK   57  A    between atoms: _127  and  _128
REMARK   58  A    between atoms: _131  and  _133
REMARK   59  A    between atoms: _133  and  _134
REMARK   60  A    between atoms: _136  and  _138
REMARK   61  A    between atoms: _138  and  _139
REMARK   62  A    between atoms: _141  and  _143
REMARK   63  A    between atoms: _143  and  _144
REMARK   64  A    between atoms: _143  and  _146
REMARK   65  A    between atoms: _146  and  _147
REMARK   66  A    between atoms: _150  and  _152
REMARK   67  A    between atoms: _152  and  _153
REMARK   68  A    between atoms: _155  and  _157
REMARK   69  A    between atoms: _157  and  _158
REMARK   70  A    between atoms: _160  and  _162
REMARK   71  A    between atoms: _162  and  _163
REMARK   72  A    between atoms: _162  and  _165
REMARK   73  A    between atoms: _165  and  _166
REMARK   74  A    between atoms: _172  and  _174
REMARK   75  A    between atoms: _174  and  _175
REMARK   76  A    between atoms: _174  and  _177
REMARK   77  A    between atoms: _177  and  _178
REMARK   78  A    between atoms: _181  and  _183
REMARK   79  A    between atoms: _183  and  _184
REMARK   80  A    between atoms: _183  and  _186
REMARK   81  A    between atoms: _189  and  _191
REMARK   82  A    between atoms: _191  and  _192
REMARK   83  A    between atoms: _191  and  _194
REMARK   84  A    between atoms: _194  and  _195
REMARK   85  A    between atoms: _198  and  _200
REMARK   86  A    between atoms: _200  and  _201
REMARK   87  A    between atoms: _200  and  _203
REMARK   88  A    between atoms: _203  and  _204
REMARK   89  A    between atoms: _208  and  _209
REMARK   90  A    between atoms: _214  and  _216
REMARK   91  A    between atoms: _216  and  _217
REMARK   92  A    between atoms: _216  and  _219
REMARK   93  A    between atoms: _219  and  _220
REMARK   94  A    between atoms: _223  and  _225
REMARK   95  A    between atoms: _225  and  _226
REMARK   96  A    between atoms: _225  and  _228
REMARK   97  A    between atoms: _228  and  _229
REMARK   98  A    between atoms: _234  and  _236
REMARK   99  A    between atoms: _236  and  _237
REMARK  100  A    between atoms: _236  and  _239
REMARK  101  A    between atoms: _242  and  _244
REMARK  102  A    between atoms: _244  and  _245
REMARK  103  A    between atoms: _244  and  _247
REMARK  104  A    between atoms: _247  and  _248
REMARK  105  A    between atoms: _251  and  _253
REMARK  106  A    between atoms: _253  and  _254
REMARK  107  A    between atoms: _256  and  _258
REMARK  108  A    between atoms: _258  and  _259
REMARK  109  A    between atoms: _258  and  _261
REMARK  110  A    between atoms: _261  and  _262
REMARK  111  A    between atoms: _262  and  _263
REMARK  112  A    between atoms: _263  and  _264
REMARK  113  A    between atoms: _273  and  _275
REMARK  114  A    between atoms: _275  and  _276
REMARK  115  A    between atoms: _275  and  _278
REMARK  116  A    between atoms: _278  and  _279
REMARK  117  A    between atoms: _284  and  _286
REMARK  118  A    between atoms: _286  and  _287
REMARK  119  A    between atoms: _286  and  _289
REMARK  120  A    between atoms: _289  and  _290
REMARK  121  A    between atoms: _290  and  _291
REMARK  122  A    between atoms: _291  and  _292
REMARK  123  A    between atoms: _301  and  _303
REMARK  124  A    between atoms: _303  and  _304
REMARK  125  A    between atoms: _303  and  _306
REMARK  126  A    between atoms: _306  and  _307
REMARK  127  A    between atoms: _310  and  _312
REMARK  128  A    between atoms: _312  and  _313
REMARK  129  A    between atoms: _312  and  _315
REMARK  130  A    between atoms: _315  and  _316
REMARK  131  A    between atoms: _319  and  _321
REMARK  132  A    between atoms: _321  and  _322
REMARK  133  A    between atoms: _321  and  _324
REMARK  134  A    between atoms: _324  and  _325
REMARK  135  A    between atoms: _328  and  _330
REMARK  136  A    between atoms: _330  and  _331
REMARK  137  A    between atoms: _330  and  _333
REMARK  138  A    between atoms: _333  and  _334
REMARK  139  A    between atoms: _337  and  _339
REMARK  140  A    between atoms: _339  and  _340
REMARK  141  A    between atoms: _339  and  _342
REMARK  142  A    between atoms: _342  and  _343
REMARK  143  A    between atoms: _346  and  _348
REMARK  144  A    between atoms: _348  and  _349
REMARK  145  A    between atoms: _351  and  _353
REMARK  146  A    between atoms: _353  and  _354
REMARK  147  A    between atoms: _357  and  _359
REMARK  148  A    between atoms: _359  and  _360
REMARK  149  A    between atoms: _359  and  _362
REMARK  150  A    between atoms: _362  and  _363
REMARK  151  A    between atoms: _366  and  _368
REMARK  152  A    between atoms: _368  and  _369
REMARK  153  A    between atoms: _368  and  _371
REMARK  154  A    between atoms: _371  and  _372
REMARK  155  A    between atoms: _375  and  _377
REMARK  156  A    between atoms: _377  and  _378
REMARK  157  A    between atoms: _377  and  _380
REMARK  158  A    between atoms: _380  and  _381
REMARK  159  A    between atoms: _384  and  _386
REMARK  160  A    between atoms: _386  and  _387
REMARK  161  A    between atoms: _386  and  _389
REMARK  162  A    between atoms: _392  and  _394
REMARK  163  A    between atoms: _394  and  _395
REMARK  164  A    between atoms: _394  and  _397
REMARK  165  A    between atoms: _397  and  _398
REMARK  166  A    between atoms: _398  and  _399
REMARK  167  A    between atoms: _402  and  _404
REMARK  168  A    between atoms: _404  and  _405
REMARK  169  A    between atoms: _404  and  _407
REMARK  170  A    between atoms: _407  and  _408
REMARK  171  A    between atoms: _408  and  _409
REMARK  172  A    between atoms: _409  and  _410
REMARK  173  A    between atoms: _410  and  _411
REMARK  174  A    between atoms: _415  and  _417
REMARK  175  A    between atoms: _417  and  _418
REMARK  176  A    between atoms: _417  and  _420
REMARK  177  A    between atoms: _420  and  _421
REMARK  178  A    between atoms: _421  and  _422
REMARK  179  A    between atoms: _424  and  _426
REMARK  180  A    between atoms: _426  and  _427
REMARK  181  A    between atoms: _426  and  _429
REMARK  182  A    between atoms: _429  and  _430
REMARK  183  A    between atoms: _433  and  _435
REMARK  184  A    between atoms: _435  and  _436
REMARK  185  A    between atoms: _438  and  _440
REMARK  186  A    between atoms: _440  and  _441
REMARK  187  A    between atoms: _443  and  _445
REMARK  188  A    between atoms: _445  and  _446
REMARK  189  A    between atoms: _445  and  _448
REMARK  190  A    between atoms: _448  and  _449
REMARK  191  A    between atoms: _452  and  _454
REMARK  192  A    between atoms: _454  and  _455
REMARK  193  A    between atoms: _457  and  _459
REMARK  194  A    between atoms: _459  and  _460
REMARK  195  A    between atoms: _462  and  _464
REMARK  196  A    between atoms: _464  and  _465
REMARK  197  A    between atoms: _464  and  _467
REMARK  198  A    between atoms: _467  and  _468
REMARK  199  A    between atoms: _474  and  _476
REMARK  200  A    between atoms: _476  and  _477
REMARK  201  A    between atoms: _476  and  _479
REMARK  202  A    between atoms: _479  and  _480
REMARK  203  A    between atoms: _483  and  _485
REMARK  204  A    between atoms: _485  and  _486
REMARK  205  A    between atoms: _485  and  _488
REMARK  206  A    between atoms: _491  and  _493
REMARK  207  A    between atoms: _493  and  _494
REMARK  208  A    between atoms: _493  and  _496
REMARK  209  A    between atoms: _496  and  _497
REMARK  210  A    between atoms: _501  and  _502
REMARK  211  A    between atoms: _507  and  _509
REMARK  212  A    between atoms: _509  and  _510
REMARK  213  A    between atoms: _509  and  _512
REMARK  214  A    between atoms: _512  and  _513
REMARK  215  A    between atoms: _517  and  _518
REMARK  216  A    between atoms: _523  and  _525
REMARK  217  A    between atoms: _525  and  _526
REMARK  218  A    between atoms: _525  and  _528
REMARK  219  A    between atoms: _528  and  _529
REMARK  220  A    between atoms: _532  and  _534
REMARK  221  A    between atoms: _534  and  _535
REMARK  222  A    between atoms: _534  and  _537
REMARK  223  A    between atoms: _537  and  _538
REMARK  224  A    between atoms: _543  and  _545
REMARK  225  A    between atoms: _545  and  _546
REMARK  226  A    between atoms: _545  and  _548
REMARK  227  A    between atoms: _551  and  _553
REMARK  228  A    between atoms: _553  and  _554
REMARK  229  A    between atoms: _553  and  _556
REMARK  230  A    between atoms: _556  and  _557
REMARK  231  A    between atoms: _560  and  _562
REMARK  232  A    between atoms: _562  and  _563
REMARK  233  A    between atoms: _565  and  _567
REMARK  234  A    between atoms: _567  and  _568
REMARK  235  A    between atoms: _567  and  _570
REMARK  236  A    between atoms: _570  and  _571
REMARK  237  A    between atoms: _571  and  _572
REMARK  238  A    between atoms: _572  and  _573
REMARK                            x       y       z     vdW  Elec       q    Type
REMARK                         _______ _______ _______ _____ _____    ______ ____
ROOT
ATOM      1  O   HOH     1      19.703  16.487   3.983  0.00  0.00    +0.000 OA
ENDROOT
TORSDOF 0
REMARK  Name = ../refined-set-2016/4a6c/4a6c_pocket.pdb
REMARK  238 active torsions:
REMARK  status: ('A' for Active; 'I' for Inactive)
REMARK    1  A    between atoms: _1  and  _3
REMARK    2  A    between atoms: _3  and  _4
REMARK    3  A    between atoms: _3  and  _6
REMARK    4  A    between atoms: _6  and  _7
REMARK    5  A    between atoms: _7  and  _8
REMARK    6  A    between atoms: _8  and  _9
REMARK    7  A    between atoms: _18  and  _20
REMARK    8  A    between atoms: _20  and  _21
REMARK    9  A    between atoms: _20  and  _23
REMARK   10  A    between atoms: _23  and  _24
REMARK   11  A    between atoms: _27  and  _29
REMARK   12  A    between atoms: _29  and  _30
REMARK   13  A    between atoms: _29  and  _32
REMARK   14  A    between atoms: _32  and  _33
REMARK   15  A    between atoms: _36  and  _38
REMARK   16  A    between atoms: _38  and  _39
REMARK   17  A    between atoms: _38  and  _41
REMARK   18  A    between atoms: _41  and  _42
REMARK   19  A    between atoms: _45  and  _47
REMARK   20  A    between atoms: _47  and  _48
REMARK   21  A    between atoms: _47  and  _50
REMARK   22  A    between atoms: _50  and  _51
REMARK   23  A    between atoms: _54  and  _56
REMARK   24  A    between atoms: _56  and  _57
REMARK   25  A    between atoms: _59  and  _61
REMARK   26  A    between atoms: _61  and  _62
REMARK   27  A    between atoms: _65  and  _67
REMARK   28  A    between atoms: _67  and  _68
REMARK   29  A    between atoms: _67  and  _70
REMARK   30  A    between atoms: _70  and  _71
REMARK   31  A    between atoms: _74  and  _76
REMARK   32  A    between atoms: _76  and  _77
REMARK   33  A    between atoms: _76  and  _79
REMARK   34  A    between atoms: _79  and  _80
REMARK   35  A    between atoms: _83  and  _85
REMARK   36  A    between atoms: _85  and  _86
REMARK   37  A    between atoms: _85  and  _88
REMARK   38  A    between atoms: _88  and  _89
REMARK   39  A    between atoms: _92  and  _94
REMARK   40  A    between atoms: _94  and  _95
REMARK   41  A    between atoms: _94  and  _97
REMARK   42  A    between atoms: _100  and  _102
REMARK   43  A    between atoms: _102  and  _103
REMARK   44  A    between atoms: _102  and  _105
REMARK   45  A    between atoms: _105  and  _106
REMARK   46  A    between atoms: _106  and  _107
REMARK   47  A    between atoms: _107  and  _108
REMARK   48  A    between atoms: _108  and  _109
REMARK   49  A    between atoms: _113  and  _115
REMARK   50  A    between atoms: _115  and  _116
REMARK   51  A    between atoms: _115  and  _118
REMARK   52  A    between atoms: _118  and  _119
REMARK   53  A    between atoms: _119  and  _120
REMARK   54  A    between atoms: _122  and  _124
REMARK   55  A    between atoms: _124  and  _125
REMARK   56  A    between atoms: _124  and  _127
REMARK   57  A    between atoms: _127  and  _128
REMARK   58  A    between atoms: _131  and  _133
REMARK   59  A    between atoms: _133  and  _134
REMARK   60  A    between atoms: _136  and  _138
REMARK   61  A    between atoms: _138  and  _139
REMARK   62  A    between atoms: _141  and  _143
REMARK   63  A    between atoms: _143  and  _144
REMARK   64  A    between atoms: _143  and  _146
REMARK   65  A    between atoms: _146  and  _147
REMARK   66  A    between atoms: _150  and  _152
REMARK   67  A    between atoms: _152  and  _153
REMARK   68  A    between atoms: _155  and  _157
REMARK   69  A    between atoms: _157  and  _158
REMARK   70  A    between atoms: _160  and  _162
REMARK   71  A    between atoms: _162  and  _163
REMARK   72  A    between atoms: _162  and  _165
REMARK   73  A    between atoms: _165  and  _166
REMARK   74  A    between atoms: _172  and  _174
REMARK   75  A    between atoms: _174  and  _175
REMARK   76  A    between atoms: _174  and  _177
REMARK   77  A    between atoms: _177  and  _178
REMARK   78  A    between atoms: _181  and  _183
REMARK   79  A    between atoms: _183  and  _184
REMARK   80  A    between atoms: _183  and  _186
REMARK   81  A    between atoms: _189  and  _191
REMARK   82  A    between atoms: _191  and  _192
REMARK   83  A    between atoms: _191  and  _194
REMARK   84  A    between atoms: _194  and  _195
REMARK   85  A    between atoms: _198  and  _200
REMARK   86  A    between atoms: _200  and  _201
REMARK   87  A    between atoms: _200  and  _203
REMARK   88  A    between atoms: _203  and  _204
REMARK   89  A    between atoms: _208  and  _209
REMARK   90  A    between atoms: _214  and  _216
REMARK   91  A    between atoms: _216  and  _217
REMARK   92  A    between atoms: _216  and  _219
REMARK   93  A    between atoms: _219  and  _220
REMARK   94  A    between atoms: _223  and  _225
REMARK   95  A    between atoms: _225  and  _226
REMARK   96  A    between atoms: _225  and  _228
REMARK   97  A    between atoms: _228  and  _229
REMARK   98  A    between atoms: _234  and  _236
REMARK   99  A    between atoms: _236  and  _237
REMARK  100  A    between atoms: _236  and  _239
REMARK  101  A    between atoms: _242  and  _244
REMARK  102  A    between atoms: _244  and  _245
REMARK  103  A    between atoms: _244  and  _247
REMARK  104  A    between atoms: _247  and  _248
REMARK  105  A    between atoms: _251  and  _253
REMARK  106  A    between atoms: _253  and  _254
REMARK  107  A    between atoms: _256  and  _258
REMARK  108  A    between atoms: _258  and  _259
REMARK  109  A    between atoms: _258  and  _261
REMARK  110  A    between atoms: _261  and  _262
REMARK  111  A    between atoms: _262  and  _263
REMARK  112  A    between atoms: _263  and  _264
REMARK  113  A    between atoms: _273  and  _275
REMARK  114  A    between atoms: _275  and  _276
REMARK  115  A    between atoms: _275  and  _278
REMARK  116  A    between atoms: _278  and  _279
REMARK  117  A    between atoms: _284  and  _286
REMARK  118  A    between atoms: _286  and  _287
REMARK  119  A    between atoms: _286  and  _289
REMARK  120  A    between atoms: _289  and  _290
REMARK  121  A    between atoms: _290  and  _291
REMARK  122  A    between atoms: _291  and  _292
REMARK  123  A    between atoms: _301  and  _303
REMARK  124  A    between atoms: _303  and  _304
REMARK  125  A    between atoms: _303  and  _306
REMARK  126  A    between atoms: _306  and  _307
REMARK  127  A    between atoms: _310  and  _312
REMARK  128  A    between atoms: _312  and  _313
REMARK  129  A    between atoms: _312  and  _315
REMARK  130  A    between atoms: _315  and  _316
REMARK  131  A    between atoms: _319  and  _321
REMARK  132  A    between atoms: _321  and  _322
REMARK  133  A    between atoms: _321  and  _324
REMARK  134  A    between atoms: _324  and  _325
REMARK  135  A    between atoms: _328  and  _330
REMARK  136  A    between atoms: _330  and  _331
REMARK  137  A    between atoms: _330  and  _333
REMARK  138  A    between atoms: _333  and  _334
REMARK  139  A    between atoms: _337  and  _339
REMARK  140  A    between atoms: _339  and  _340
REMARK  141  A    between atoms: _339  and  _342
REMARK  142  A    between atoms: _342  and  _343
REMARK  143  A    between atoms: _346  and  _348
REMARK  144  A    between atoms: _348  and  _349
REMARK  145  A    between atoms: _351  and  _353
REMARK  146  A    between atoms: _353  and  _354
REMARK  147  A    between atoms: _357  and  _359
REMARK  148  A    between atoms: _359  and  _360
REMARK  149  A    between atoms: _359  and  _362
REMARK  150  A    between atoms: _362  and  _363
REMARK  151  A    between atoms: _366  and  _368
REMARK  152  A    between atoms: _368  and  _369
REMARK  153  A    between atoms: _368  and  _371
REMARK  154  A    between atoms: _371  and  _372
REMARK  155  A    between atoms: _375  and  _377
REMARK  156  A    between atoms: _377  and  _378
REMARK  157  A    between atoms: _377  and  _380
REMARK  158  A    between atoms: _380  and  _381
REMARK  159  A    between atoms: _384  and  _386
REMARK  160  A    between atoms: _386  and  _387
REMARK  161  A    between atoms: _386  and  _389
REMARK  162  A    between atoms: _392  and  _394
REMARK  163  A    between atoms: _394  and  _395
REMARK  164  A    between atoms: _394  and  _397
REMARK  165  A    between atoms: _397  and  _398
REMARK  166  A    between atoms: _398  and  _399
REMARK  167  A    between atoms: _402  and  _404
REMARK  168  A    between atoms: _404  and  _405
REMARK  169  A    between atoms: _404  and  _407
REMARK  170  A    between atoms: _407  and  _408
REMARK  171  A    between atoms: _408  and  _409
REMARK  172  A    between atoms: _409  and  _410
REMARK  173  A    between atoms: _410  and  _411
REMARK  174  A    between atoms: _415  and  _417
REMARK  175  A    between atoms: _417  and  _418
REMARK  176  A    between atoms: _417  and  _420
REMARK  177  A    between atoms: _420  and  _421
REMARK  178  A    between atoms: _421  and  _422
REMARK  179  A    between atoms: _424  and  _426
REMARK  180  A    between atoms: _426  and  _427
REMARK  181  A    between atoms: _426  and  _429
REMARK  182  A    between atoms: _429  and  _430
REMARK  183  A    between atoms: _433  and  _435
REMARK  184  A    between atoms: _435  and  _436
REMARK  185  A    between atoms: _438  and  _440
REMARK  186  A    between atoms: _440  and  _441
REMARK  187  A    between atoms: _443  and  _445
REMARK  188  A    between atoms: _445  and  _446
REMARK  189  A    between atoms: _445  and  _448
REMARK  190  A    between atoms: _448  and  _449
REMARK  191  A    between atoms: _452  and  _454
REMARK  192  A    between atoms: _454  and  _455
REMARK  193  A    between atoms: _457  and  _459
REMARK  194  A    between atoms: _459  and  _460
REMARK  195  A    between atoms: _462  and  _464
REMARK  196  A    between atoms: _464  and  _465
REMARK  197  A    between atoms: _464  and  _467
REMARK  198  A    between atoms: _467  and  _468
REMARK  199  A    between atoms: _474  and  _476
REMARK  200  A    between atoms: _476  and  _477
REMARK  201  A    between atoms: _476  and  _479
REMARK  202  A    between atoms: _479  and  _480
REMARK  203  A    between atoms: _483  and  _485
REMARK  204  A    between atoms: _485  and  _486
REMARK  205  A    between atoms: _485  and  _488
REMARK  206  A    between atoms: _491  and  _493
REMARK  207  A    between atoms: _493  and  _494
REMARK  208  A    between atoms: _493  and  _496
REMARK  209  A    between atoms: _496  and  _497
REMARK  210  A    between atoms: _501  and  _502
REMARK  211  A    between atoms: _507  and  _509
REMARK  212  A    between atoms: _509  and  _510
REMARK  213  A    between atoms: _509  and  _512
REMARK  214  A    between atoms: _512  and  _513
REMARK  215  A    between atoms: _517  and  _518
REMARK  216  A    between atoms: _523  and  _525
REMARK  217  A    between atoms: _525  and  _526
REMARK  218  A    between atoms: _525  and  _528
REMARK  219  A    between atoms: _528  and  _529
REMARK  220  A    between atoms: _532  and  _534
REMARK  221  A    between atoms: _534  and  _535
REMARK  222  A    between atoms: _534  and  _537
REMARK  223  A    between atoms: _537  and  _538
REMARK  224  A    between atoms: _543  and  _545
REMARK  225  A    between atoms: _545  and  _546
REMARK  226  A    between atoms: _545  and  _548
REMARK  227  A    between atoms: _551  and  _553
REMARK  228  A    between atoms: _553  and  _554
REMARK  229  A    between atoms: _553  and  _556
REMARK  230  A    between atoms: _556  and  _557
REMARK  231  A    between atoms: _560  and  _562
REMARK  232  A    between atoms: _562  and  _563
REMARK  233  A    between atoms: _565  and  _567
REMARK  234  A    between atoms: _567  and  _568
REMARK  235  A    between atoms: _567  and  _570
REMARK  236  A    between atoms: _570  and  _571
REMARK  237  A    between atoms: _571  and  _572
REMARK  238  A    between atoms: _572  and  _573
REMARK                            x       y       z     vdW  Elec       q    Type
REMARK                         _______ _______ _______ _____ _____    ______ ____
ROOT
ATOM      1  O   HOH     1      19.971  16.674  -3.569  0.00  0.00    +0.000 OA
ENDROOT
TORSDOF 0
REMARK  Name = ../refined-set-2016/4a6c/4a6c_pocket.pdb
REMARK  238 active torsions:
REMARK  status: ('A' for Active; 'I' for Inactive)
REMARK    1  A    between atoms: _1  and  _3
REMARK    2  A    between atoms: _3  and  _4
REMARK    3  A    between atoms: _3  and  _6
REMARK    4  A    between atoms: _6  and  _7
REMARK    5  A    between atoms: _7  and  _8
REMARK    6  A    between atoms: _8  and  _9
REMARK    7  A    between atoms: _18  and  _20
REMARK    8  A    between atoms: _20  and  _21
REMARK    9  A    between atoms: _20  and  _23
REMARK   10  A    between atoms: _23  and  _24
REMARK   11  A    between atoms: _27  and  _29
REMARK   12  A    between atoms: _29  and  _30
REMARK   13  A    between atoms: _29  and  _32
REMARK   14  A    between atoms: _32  and  _33
REMARK   15  A    between atoms: _36  and  _38
REMARK   16  A    between atoms: _38  and  _39
REMARK   17  A    between atoms: _38  and  _41
REMARK   18  A    between atoms: _41  and  _42
REMARK   19  A    between atoms: _45  and  _47
REMARK   20  A    between atoms: _47  and  _48
REMARK   21  A    between atoms: _47  and  _50
REMARK   22  A    between atoms: _50  and  _51
REMARK   23  A    between atoms: _54  and  _56
REMARK   24  A    between atoms: _56  and  _57
REMARK   25  A    between atoms: _59  and  _61
REMARK   26  A    between atoms: _61  and  _62
REMARK   27  A    between atoms: _65  and  _67
REMARK   28  A    between atoms: _67  and  _68
REMARK   29  A    between atoms: _67  and  _70
REMARK   30  A    between atoms: _70  and  _71
REMARK   31  A    between atoms: _74  and  _76
REMARK   32  A    between atoms: _76  and  _77
REMARK   33  A    between atoms: _76  and  _79
REMARK   34  A    between atoms: _79  and  _80
REMARK   35  A    between atoms: _83  and  _85
REMARK   36  A    between atoms: _85  and  _86
REMARK   37  A    between atoms: _85  and  _88
REMARK   38  A    between atoms: _88  and  _89
REMARK   39  A    between atoms: _92  and  _94
REMARK   40  A    between atoms: _94  and  _95
REMARK   41  A    between atoms: _94  and  _97
REMARK   42  A    between atoms: _100  and  _102
REMARK   43  A    between atoms: _102  and  _103
REMARK   44  A    between atoms: _102  and  _105
REMARK   45  A    between atoms: _105  and  _106
REMARK   46  A    between atoms: _106  and  _107
REMARK   47  A    between atoms: _107  and  _108
REMARK   48  A    between atoms: _108  and  _109
REMARK   49  A    between atoms: _113  and  _115
REMARK   50  A    between atoms: _115  and  _116
REMARK   51  A    between atoms: _115  and  _118
REMARK   52  A    between atoms: _118  and  _119
REMARK   53  A    between atoms: _119  and  _120
REMARK   54  A    between atoms: _122  and  _124
REMARK   55  A    between atoms: _124  and  _125
REMARK   56  A    between atoms: _124  and  _127
REMARK   57  A    between atoms: _127  and  _128
REMARK   58  A    between atoms: _131  and  _133
REMARK   59  A    between atoms: _133  and  _134
REMARK   60  A    between atoms: _136  and  _138
REMARK   61  A    between atoms: _138  and  _139
REMARK   62  A    between atoms: _141  and  _143
REMARK   63  A    between atoms: _143  and  _144
REMARK   64  A    between atoms: _143  and  _146
REMARK   65  A    between atoms: _146  and  _147
REMARK   66  A    between atoms: _150  and  _152
REMARK   67  A    between atoms: _152  and  _153
REMARK   68  A    between atoms: _155  and  _157
REMARK   69  A    between atoms: _157  and  _158
REMARK   70  A    between atoms: _160  and  _162
REMARK   71  A    between atoms: _162  and  _163
REMARK   72  A    between atoms: _162  and  _165
REMARK   73  A    between atoms: _165  and  _166
REMARK   74  A    between atoms: _172  and  _174
REMARK   75  A    between atoms: _174  and  _175
REMARK   76  A    between atoms: _174  and  _177
REMARK   77  A    between atoms: _177  and  _178
REMARK   78  A    between atoms: _181  and  _183
REMARK   79  A    between atoms: _183  and  _184
REMARK   80  A    between atoms: _183  and  _186
REMARK   81  A    between atoms: _189  and  _191
REMARK   82  A    between atoms: _191  and  _192
REMARK   83  A    between atoms: _191  and  _194
REMARK   84  A    between atoms: _194  and  _195
REMARK   85  A    between atoms: _198  and  _200
REMARK   86  A    between atoms: _200  and  _201
REMARK   87  A    between atoms: _200  and  _203
REMARK   88  A    between atoms: _203  and  _204
REMARK   89  A    between atoms: _208  and  _209
REMARK   90  A    between atoms: _214  and  _216
REMARK   91  A    between atoms: _216  and  _217
REMARK   92  A    between atoms: _216  and  _219
REMARK   93  A    between atoms: _219  and  _220
REMARK   94  A    between atoms: _223  and  _225
REMARK   95  A    between atoms: _225  and  _226
REMARK   96  A    between atoms: _225  and  _228
REMARK   97  A    between atoms: _228  and  _229
REMARK   98  A    between atoms: _234  and  _236
REMARK   99  A    between atoms: _236  and  _237
REMARK  100  A    between atoms: _236  and  _239
REMARK  101  A    between atoms: _242  and  _244
REMARK  102  A    between atoms: _244  and  _245
REMARK  103  A    between atoms: _244  and  _247
REMARK  104  A    between atoms: _247  and  _248
REMARK  105  A    between atoms: _251  and  _253
REMARK  106  A    between atoms: _253  and  _254
REMARK  107  A    between atoms: _256  and  _258
REMARK  108  A    between atoms: _258  and  _259
REMARK  109  A    between atoms: _258  and  _261
REMARK  110  A    between atoms: _261  and  _262
REMARK  111  A    between atoms: _262  and  _263
REMARK  112  A    between atoms: _263  and  _264
REMARK  113  A    between atoms: _273  and  _275
REMARK  114  A    between atoms: _275  and  _276
REMARK  115  A    between atoms: _275  and  _278
REMARK  116  A    between atoms: _278  and  _279
REMARK  117  A    between atoms: _284  and  _286
REMARK  118  A    between atoms: _286  and  _287
REMARK  119  A    between atoms: _286  and  _289
REMARK  120  A    between atoms: _289  and  _290
REMARK  121  A    between atoms: _290  and  _291
REMARK  122  A    between atoms: _291  and  _292
REMARK  123  A    between atoms: _301  and  _303
REMARK  124  A    between atoms: _303  and  _304
REMARK  125  A    between atoms: _303  and  _306
REMARK  126  A    between atoms: _306  and  _307
REMARK  127  A    between atoms: _310  and  _312
REMARK  128  A    between atoms: _312  and  _313
REMARK  129  A    between atoms: _312  and  _315
REMARK  130  A    between atoms: _315  and  _316
REMARK  131  A    between atoms: _319  and  _321
REMARK  132  A    between atoms: _321  and  _322
REMARK  133  A    between atoms: _321  and  _324
REMARK  134  A    between atoms: _324  and  _325
REMARK  135  A    between atoms: _328  and  _330
REMARK  136  A    between atoms: _330  and  _331
REMARK  137  A    between atoms: _330  and  _333
REMARK  138  A    between atoms: _333  and  _334
REMARK  139  A    between atoms: _337  and  _339
REMARK  140  A    between atoms: _339  and  _340
REMARK  141  A    between atoms: _339  and  _342
REMARK  142  A    between atoms: _342  and  _343
REMARK  143  A    between atoms: _346  and  _348
REMARK  144  A    between atoms: _348  and  _349
REMARK  145  A    between atoms: _351  and  _353
REMARK  146  A    between atoms: _353  and  _354
REMARK  147  A    between atoms: _357  and  _359
REMARK  148  A    between atoms: _359  and  _360
REMARK  149  A    between atoms: _359  and  _362
REMARK  150  A    between atoms: _362  and  _363
REMARK  151  A    between atoms: _366  and  _368
REMARK  152  A    between atoms: _368  and  _369
REMARK  153  A    between atoms: _368  and  _371
REMARK  154  A    between atoms: _371  and  _372
REMARK  155  A    between atoms: _375  and  _377
REMARK  156  A    between atoms: _377  and  _378
REMARK  157  A    between atoms: _377  and  _380
REMARK  158  A    between atoms: _380  and  _381
REMARK  159  A    between atoms: _384  and  _386
REMARK  160  A    between atoms: _386  and  _387
REMARK  161  A    between atoms: _386  and  _389
REMARK  162  A    between atoms: _392  and  _394
REMARK  163  A    between atoms: _394  and  _395
REMARK  164  A    between atoms: _394  and  _397
REMARK  165  A    between atoms: _397  and  _398
REMARK  166  A    between atoms: _398  and  _399
REMARK  167  A    between atoms: _402  and  _404
REMARK  168  A    between atoms: _404  and  _405
REMARK  169  A    between atoms: _404  and  _407
REMARK  170  A    between atoms: _407  and  _408
REMARK  171  A    between atoms: _408  and  _409
REMARK  172  A    between atoms: _409  and  _410
REMARK  173  A    between atoms: _410  and  _411
REMARK  174  A    between atoms: _415  and  _417
REMARK  175  A    between atoms: _417  and  _418
REMARK  176  A    between atoms: _417  and  _420
REMARK  177  A    between atoms: _420  and  _421
REMARK  178  A    between atoms: _421  and  _422
REMARK  179  A    between atoms: _424  and  _426
REMARK  180  A    between atoms: _426  and  _427
REMARK  181  A    between atoms: _426  and  _429
REMARK  182  A    between atoms: _429  and  _430
REMARK  183  A    between atoms: _433  and  _435
REMARK  184  A    between atoms: _435  and  _436
REMARK  185  A    between atoms: _438  and  _440
REMARK  186  A    between atoms: _440  and  _441
REMARK  187  A    between atoms: _443  and  _445
REMARK  188  A    between atoms: _445  and  _446
REMARK  189  A    between atoms: _445  and  _448
REMARK  190  A    between atoms: _448  and  _449
REMARK  191  A    between atoms: _452  and  _454
REMARK  192  A    between atoms: _454  and  _455
REMARK  193  A    between atoms: _457  and  _459
REMARK  194  A    between atoms: _459  and  _460
REMARK  195  A    between atoms: _462  and  _464
REMARK  196  A    between atoms: _464  and  _465
REMARK  197  A    between atoms: _464  and  _467
REMARK  198  A    between atoms: _467  and  _468
REMARK  199  A    between atoms: _474  and  _476
REMARK  200  A    between atoms: _476  and  _477
REMARK  201  A    between atoms: _476  and  _479
REMARK  202  A    between atoms: _479  and  _480
REMARK  203  A    between atoms: _483  and  _485
REMARK  204  A    between atoms: _485  and  _486
REMARK  205  A    between atoms: _485  and  _488
REMARK  206  A    between atoms: _491  and  _493
REMARK  207  A    between atoms: _493  and  _494
REMARK  208  A    between atoms: _493  and  _496
REMARK  209  A    between atoms: _496  and  _497
REMARK  210  A    between atoms: _501  and  _502
REMARK  211  A    between atoms: _507  and  _509
REMARK  212  A    between atoms: _509  and  _510
REMARK  213  A    between atoms: _509  and  _512
REMARK  214  A    between atoms: _512  and  _513
REMARK  215  A    between atoms: _517  and  _518
REMARK  216  A    between atoms: _523  and  _525
REMARK  217  A    between atoms: _525  and  _526
REMARK  218  A    between atoms: _525  and  _528
REMARK  219  A    between atoms: _528  and  _529
REMARK  220  A    between atoms: _532  and  _534
REMARK  221  A    between atoms: _534  and  _535
REMARK  222  A    between atoms: _534  and  _537
REMARK  223  A    between atoms: _537  and  _538
REMARK  224  A    between atoms: _543  and  _545
REMARK  225  A    between atoms: _545  and  _546
REMARK  226  A    between atoms: _545  and  _548
REMARK  227  A    between atoms: _551  and  _553
REMARK  228  A    between atoms: _553  and  _554
REMARK  229  A    between atoms: _553  and  _556
REMARK  230  A    between atoms: _556  and  _557
REMARK  231  A    between atoms: _560  and  _562
REMARK  232  A    between atoms: _562  and  _563
REMARK  233  A    between atoms: _565  and  _567
REMARK  234  A    between atoms: _567  and  _568
REMARK  235  A    between atoms: _567  and  _570
REMARK  236  A    between atoms: _570  and  _571
REMARK  237  A    between atoms: _571  and  _572
REMARK  238  A    between atoms: _572  and  _573
REMARK                            x       y       z     vdW  Elec       q    Type
REMARK                         _______ _______ _______ _____ _____    ______ ____
ROOT
ATOM      1  O   HOH     1      18.702  14.921   5.931  0.00  0.00    +0.000 OA
ENDROOT
TORSDOF 0
REMARK  Name = ../refined-set-2016/4a6c/4a6c_pocket.pdb
REMARK  238 active torsions:
REMARK  status: ('A' for Active; 'I' for Inactive)
REMARK    1  A    between atoms: _1  and  _3
REMARK    2  A    between atoms: _3  and  _4
REMARK    3  A    between atoms: _3  and  _6
REMARK    4  A    between atoms: _6  and  _7
REMARK    5  A    between atoms: _7  and  _8
REMARK    6  A    between atoms: _8  and  _9
REMARK    7  A    between atoms: _18  and  _20
REMARK    8  A    between atoms: _20  and  _21
REMARK    9  A    between atoms: _20  and  _23
REMARK   10  A    between atoms: _23  and  _24
REMARK   11  A    between atoms: _27  and  _29
REMARK   12  A    between atoms: _29  and  _30
REMARK   13  A    between atoms: _29  and  _32
REMARK   14  A    between atoms: _32  and  _33
REMARK   15  A    between atoms: _36  and  _38
REMARK   16  A    between atoms: _38  and  _39
REMARK   17  A    between atoms: _38  and  _41
REMARK   18  A    between atoms: _41  and  _42
REMARK   19  A    between atoms: _45  and  _47
REMARK   20  A    between atoms: _47  and  _48
REMARK   21  A    between atoms: _47  and  _50
REMARK   22  A    between atoms: _50  and  _51
REMARK   23  A    between atoms: _54  and  _56
REMARK   24  A    between atoms: _56  and  _57
REMARK   25  A    between atoms: _59  and  _61
REMARK   26  A    between atoms: _61  and  _62
REMARK   27  A    between atoms: _65  and  _67
REMARK   28  A    between atoms: _67  and  _68
REMARK   29  A    between atoms: _67  and  _70
REMARK   30  A    between atoms: _70  and  _71
REMARK   31  A    between atoms: _74  and  _76
REMARK   32  A    between atoms: _76  and  _77
REMARK   33  A    between atoms: _76  and  _79
REMARK   34  A    between atoms: _79  and  _80
REMARK   35  A    between atoms: _83  and  _85
REMARK   36  A    between atoms: _85  and  _86
REMARK   37  A    between atoms: _85  and  _88
REMARK   38  A    between atoms: _88  and  _89
REMARK   39  A    between atoms: _92  and  _94
REMARK   40  A    between atoms: _94  and  _95
REMARK   41  A    between atoms: _94  and  _97
REMARK   42  A    between atoms: _100  and  _102
REMARK   43  A    between atoms: _102  and  _103
REMARK   44  A    between atoms: _102  and  _105
REMARK   45  A    between atoms: _105  and  _106
REMARK   46  A    between atoms: _106  and  _107
REMARK   47  A    between atoms: _107  and  _108
REMARK   48  A    between atoms: _108  and  _109
REMARK   49  A    between atoms: _113  and  _115
REMARK   50  A    between atoms: _115  and  _116
REMARK   51  A    between atoms: _115  and  _118
REMARK   52  A    between atoms: _118  and  _119
REMARK   53  A    between atoms: _119  and  _120
REMARK   54  A    between atoms: _122  and  _124
REMARK   55  A    between atoms: _124  and  _125
REMARK   56  A    between atoms: _124  and  _127
REMARK   57  A    between atoms: _127  and  _128
REMARK   58  A    between atoms: _131  and  _133
REMARK   59  A    between atoms: _133  and  _134
REMARK   60  A    between atoms: _136  and  _138
REMARK   61  A    between atoms: _138  and  _139
REMARK   62  A    between atoms: _141  and  _143
REMARK   63  A    between atoms: _143  and  _144
REMARK   64  A    between atoms: _143  and  _146
REMARK   65  A    between atoms: _146  and  _147
REMARK   66  A    between atoms: _150  and  _152
REMARK   67  A    between atoms: _152  and  _153
REMARK   68  A    between atoms: _155  and  _157
REMARK   69  A    between atoms: _157  and  _158
REMARK   70  A    between atoms: _160  and  _162
REMARK   71  A    between atoms: _162  and  _163
REMARK   72  A    between atoms: _162  and  _165
REMARK   73  A    between atoms: _165  and  _166
REMARK   74  A    between atoms: _172  and  _174
REMARK   75  A    between atoms: _174  and  _175
REMARK   76  A    between atoms: _174  and  _177
REMARK   77  A    between atoms: _177  and  _178
REMARK   78  A    between atoms: _181  and  _183
REMARK   79  A    between atoms: _183  and  _184
REMARK   80  A    between atoms: _183  and  _186
REMARK   81  A    between atoms: _189  and  _191
REMARK   82  A    between atoms: _191  and  _192
REMARK   83  A    between atoms: _191  and  _194
REMARK   84  A    between atoms: _194  and  _195
REMARK   85  A    between atoms: _198  and  _200
REMARK   86  A    between atoms: _200  and  _201
REMARK   87  A    between atoms: _200  and  _203
REMARK   88  A    between atoms: _203  and  _204
REMARK   89  A    between atoms: _208  and  _209
REMARK   90  A    between atoms: _214  and  _216
REMARK   91  A    between atoms: _216  and  _217
REMARK   92  A    between atoms: _216  and  _219
REMARK   93  A    between atoms: _219  and  _220
REMARK   94  A    between atoms: _223  and  _225
REMARK   95  A    between atoms: _225  and  _226
REMARK   96  A    between atoms: _225  and  _228
REMARK   97  A    between atoms: _228  and  _229
REMARK   98  A    between atoms: _234  and  _236
REMARK   99  A    between atoms: _236  and  _237
REMARK  100  A    between atoms: _236  and  _239
REMARK  101  A    between atoms: _242  and  _244
REMARK  102  A    between atoms: _244  and  _245
REMARK  103  A    between atoms: _244  and  _247
REMARK  104  A    between atoms: _247  and  _248
REMARK  105  A    between atoms: _251  and  _253
REMARK  106  A    between atoms: _253  and  _254
REMARK  107  A    between atoms: _256  and  _258
REMARK  108  A    between atoms: _258  and  _259
REMARK  109  A    between atoms: _258  and  _261
REMARK  110  A    between atoms: _261  and  _262
REMARK  111  A    between atoms: _262  and  _263
REMARK  112  A    between atoms: _263  and  _264
REMARK  113  A    between atoms: _273  and  _275
REMARK  114  A    between atoms: _275  and  _276
REMARK  115  A    between atoms: _275  and  _278
REMARK  116  A    between atoms: _278  and  _279
REMARK  117  A    between atoms: _284  and  _286
REMARK  118  A    between atoms: _286  and  _287
REMARK  119  A    between atoms: _286  and  _289
REMARK  120  A    between atoms: _289  and  _290
REMARK  121  A    between atoms: _290  and  _291
REMARK  122  A    between atoms: _291  and  _292
REMARK  123  A    between atoms: _301  and  _303
REMARK  124  A    between atoms: _303  and  _304
REMARK  125  A    between atoms: _303  and  _306
REMARK  126  A    between atoms: _306  and  _307
REMARK  127  A    between atoms: _310  and  _312
REMARK  128  A    between atoms: _312  and  _313
REMARK  129  A    between atoms: _312  and  _315
REMARK  130  A    between atoms: _315  and  _316
REMARK  131  A    between atoms: _319  and  _321
REMARK  132  A    between atoms: _321  and  _322
REMARK  133  A    between atoms: _321  and  _324
REMARK  134  A    between atoms: _324  and  _325
REMARK  135  A    between atoms: _328  and  _330
REMARK  136  A    between atoms: _330  and  _331
REMARK  137  A    between atoms: _330  and  _333
REMARK  138  A    between atoms: _333  and  _334
REMARK  139  A    between atoms: _337  and  _339
REMARK  140  A    between atoms: _339  and  _340
REMARK  141  A    between atoms: _339  and  _342
REMARK  142  A    between atoms: _342  and  _343
REMARK  143  A    between atoms: _346  and  _348
REMARK  144  A    between atoms: _348  and  _349
REMARK  145  A    between atoms: _351  and  _353
REMARK  146  A    between atoms: _353  and  _354
REMARK  147  A    between atoms: _357  and  _359
REMARK  148  A    between atoms: _359  and  _360
REMARK  149  A    between atoms: _359  and  _362
REMARK  150  A    between atoms: _362  and  _363
REMARK  151  A    between atoms: _366  and  _368
REMARK  152  A    between atoms: _368  and  _369
REMARK  153  A    between atoms: _368  and  _371
REMARK  154  A    between atoms: _371  and  _372
REMARK  155  A    between atoms: _375  and  _377
REMARK  156  A    between atoms: _377  and  _378
REMARK  157  A    between atoms: _377  and  _380
REMARK  158  A    between atoms: _380  and  _381
REMARK  159  A    between atoms: _384  and  _386
REMARK  160  A    between atoms: _386  and  _387
REMARK  161  A    between atoms: _386  and  _389
REMARK  162  A    between atoms: _392  and  _394
REMARK  163  A    between atoms: _394  and  _395
REMARK  164  A    between atoms: _394  and  _397
REMARK  165  A    between atoms: _397  and  _398
REMARK  166  A    between atoms: _398  and  _399
REMARK  167  A    between atoms: _402  and  _404
REMARK  168  A    between atoms: _404  and  _405
REMARK  169  A    between atoms: _404  and  _407
REMARK  170  A    between atoms: _407  and  _408
REMARK  171  A    between atoms: _408  and  _409
REMARK  172  A    between atoms: _409  and  _410
REMARK  173  A    between atoms: _410  and  _411
REMARK  174  A    between atoms: _415  and  _417
REMARK  175  A    between atoms: _417  and  _418
REMARK  176  A    between atoms: _417  and  _420
REMARK  177  A    between atoms: _420  and  _421
REMARK  178  A    between atoms: _421  and  _422
REMARK  179  A    between atoms: _424  and  _426
REMARK  180  A    between atoms: _426  and  _427
REMARK  181  A    between atoms: _426  and  _429
REMARK  182  A    between atoms: _429  and  _430
REMARK  183  A    between atoms: _433  and  _435
REMARK  184  A    between atoms: _435  and  _436
REMARK  185  A    between atoms: _438  and  _440
REMARK  186  A    between atoms: _440  and  _441
REMARK  187  A    between atoms: _443  and  _445
REMARK  188  A    between atoms: _445  and  _446
REMARK  189  A    between atoms: _445  and  _448
REMARK  190  A    between atoms: _448  and  _449
REMARK  191  A    between atoms: _452  and  _454
REMARK  192  A    between atoms: _454  and  _455
REMARK  193  A    between atoms: _457  and  _459
REMARK  194  A    between atoms: _459  and  _460
REMARK  195  A    between atoms: _462  and  _464
REMARK  196  A    between atoms: _464  and  _465
REMARK  197  A    between atoms: _464  and  _467
REMARK  198  A    between atoms: _467  and  _468
REMARK  199  A    between atoms: _474  and  _476
REMARK  200  A    between atoms: _476  and  _477
REMARK  201  A    between atoms: _476  and  _479
REMARK  202  A    between atoms: _479  and  _480
REMARK  203  A    between atoms: _483  and  _485
REMARK  204  A    between atoms: _485  and  _486
REMARK  205  A    between atoms: _485  and  _488
REMARK  206  A    between atoms: _491  and  _493
REMARK  207  A    between atoms: _493  and  _494
REMARK  208  A    between atoms: _493  and  _496
REMARK  209  A    between atoms: _496  and  _497
REMARK  210  A    between atoms: _501  and  _502
REMARK  211  A    between atoms: _507  and  _509
REMARK  212  A    between atoms: _509  and  _510
REMARK  213  A    between atoms: _509  and  _512
REMARK  214  A    between atoms: _512  and  _513
REMARK  215  A    between atoms: _517  and  _518
REMARK  216  A    between atoms: _523  and  _525
REMARK  217  A    between atoms: _525  and  _526
REMARK  218  A    between atoms: _525  and  _528
REMARK  219  A    between atoms: _528  and  _529
REMARK  220  A    between atoms: _532  and  _534
REMARK  221  A    between atoms: _534  and  _535
REMARK  222  A    between atoms: _534  and  _537
REMARK  223  A    between atoms: _537  and  _538
REMARK  224  A    between atoms: _543  and  _545
REMARK  225  A    between atoms: _545  and  _546
REMARK  226  A    between atoms: _545  and  _548
REMARK  227  A    between atoms: _551  and  _553
REMARK  228  A    between atoms: _553  and  _554
REMARK  229  A    between atoms: _553  and  _556
REMARK  230  A    between atoms: _556  and  _557
REMARK  231  A    between atoms: _560  and  _562
REMARK  232  A    between atoms: _562  and  _563
REMARK  233  A    between atoms: _565  and  _567
REMARK  234  A    between atoms: _567  and  _568
REMARK  235  A    between atoms: _567  and  _570
REMARK  236  A    between atoms: _570  and  _571
REMARK  237  A    between atoms: _571  and  _572
REMARK  238  A    between atoms: _572  and  _573
REMARK                            x       y       z     vdW  Elec       q    Type
REMARK                         _______ _______ _______ _____ _____    ______ ____
ROOT
ATOM      1  O   HOH     1       9.783  17.118  14.050  0.00  0.00    +0.000 OA
ENDROOT
TORSDOF 0
REMARK  Name = ../refined-set-2016/4a6c/4a6c_pocket.pdb
REMARK  238 active torsions:
REMARK  status: ('A' for Active; 'I' for Inactive)
REMARK    1  A    between atoms: _1  and  _3
REMARK    2  A    between atoms: _3  and  _4
REMARK    3  A    between atoms: _3  and  _6
REMARK    4  A    between atoms: _6  and  _7
REMARK    5  A    between atoms: _7  and  _8
REMARK    6  A    between atoms: _8  and  _9
REMARK    7  A    between atoms: _18  and  _20
REMARK    8  A    between atoms: _20  and  _21
REMARK    9  A    between atoms: _20  and  _23
REMARK   10  A    between atoms: _23  and  _24
REMARK   11  A    between atoms: _27  and  _29
REMARK   12  A    between atoms: _29  and  _30
REMARK   13  A    between atoms: _29  and  _32
REMARK   14  A    between atoms: _32  and  _33
REMARK   15  A    between atoms: _36  and  _38
REMARK   16  A    between atoms: _38  and  _39
REMARK   17  A    between atoms: _38  and  _41
REMARK   18  A    between atoms: _41  and  _42
REMARK   19  A    between atoms: _45  and  _47
REMARK   20  A    between atoms: _47  and  _48
REMARK   21  A    between atoms: _47  and  _50
REMARK   22  A    between atoms: _50  and  _51
REMARK   23  A    between atoms: _54  and  _56
REMARK   24  A    between atoms: _56  and  _57
REMARK   25  A    between atoms: _59  and  _61
REMARK   26  A    between atoms: _61  and  _62
REMARK   27  A    between atoms: _65  and  _67
REMARK   28  A    between atoms: _67  and  _68
REMARK   29  A    between atoms: _67  and  _70
REMARK   30  A    between atoms: _70  and  _71
REMARK   31  A    between atoms: _74  and  _76
REMARK   32  A    between atoms: _76  and  _77
REMARK   33  A    between atoms: _76  and  _79
REMARK   34  A    between atoms: _79  and  _80
REMARK   35  A    between atoms: _83  and  _85
REMARK   36  A    between atoms: _85  and  _86
REMARK   37  A    between atoms: _85  and  _88
REMARK   38  A    between atoms: _88  and  _89
REMARK   39  A    between atoms: _92  and  _94
REMARK   40  A    between atoms: _94  and  _95
REMARK   41  A    between atoms: _94  and  _97
REMARK   42  A    between atoms: _100  and  _102
REMARK   43  A    between atoms: _102  and  _103
REMARK   44  A    between atoms: _102  and  _105
REMARK   45  A    between atoms: _105  and  _106
REMARK   46  A    between atoms: _106  and  _107
REMARK   47  A    between atoms: _107  and  _108
REMARK   48  A    between atoms: _108  and  _109
REMARK   49  A    between atoms: _113  and  _115
REMARK   50  A    between atoms: _115  and  _116
REMARK   51  A    between atoms: _115  and  _118
REMARK   52  A    between atoms: _118  and  _119
REMARK   53  A    between atoms: _119  and  _120
REMARK   54  A    between atoms: _122  and  _124
REMARK   55  A    between atoms: _124  and  _125
REMARK   56  A    between atoms: _124  and  _127
REMARK   57  A    between atoms: _127  and  _128
REMARK   58  A    between atoms: _131  and  _133
REMARK   59  A    between atoms: _133  and  _134
REMARK   60  A    between atoms: _136  and  _138
REMARK   61  A    between atoms: _138  and  _139
REMARK   62  A    between atoms: _141  and  _143
REMARK   63  A    between atoms: _143  and  _144
REMARK   64  A    between atoms: _143  and  _146
REMARK   65  A    between atoms: _146  and  _147
REMARK   66  A    between atoms: _150  and  _152
REMARK   67  A    between atoms: _152  and  _153
REMARK   68  A    between atoms: _155  and  _157
REMARK   69  A    between atoms: _157  and  _158
REMARK   70  A    between atoms: _160  and  _162
REMARK   71  A    between atoms: _162  and  _163
REMARK   72  A    between atoms: _162  and  _165
REMARK   73  A    between atoms: _165  and  _166
REMARK   74  A    between atoms: _172  and  _174
REMARK   75  A    between atoms: _174  and  _175
REMARK   76  A    between atoms: _174  and  _177
REMARK   77  A    between atoms: _177  and  _178
REMARK   78  A    between atoms: _181  and  _183
REMARK   79  A    between atoms: _183  and  _184
REMARK   80  A    between atoms: _183  and  _186
REMARK   81  A    between atoms: _189  and  _191
REMARK   82  A    between atoms: _191  and  _192
REMARK   83  A    between atoms: _191  and  _194
REMARK   84  A    between atoms: _194  and  _195
REMARK   85  A    between atoms: _198  and  _200
REMARK   86  A    between atoms: _200  and  _201
REMARK   87  A    between atoms: _200  and  _203
REMARK   88  A    between atoms: _203  and  _204
REMARK   89  A    between atoms: _208  and  _209
REMARK   90  A    between atoms: _214  and  _216
REMARK   91  A    between atoms: _216  and  _217
REMARK   92  A    between atoms: _216  and  _219
REMARK   93  A    between atoms: _219  and  _220
REMARK   94  A    between atoms: _223  and  _225
REMARK   95  A    between atoms: _225  and  _226
REMARK   96  A    between atoms: _225  and  _228
REMARK   97  A    between atoms: _228  and  _229
REMARK   98  A    between atoms: _234  and  _236
REMARK   99  A    between atoms: _236  and  _237
REMARK  100  A    between atoms: _236  and  _239
REMARK  101  A    between atoms: _242  and  _244
REMARK  102  A    between atoms: _244  and  _245
REMARK  103  A    between atoms: _244  and  _247
REMARK  104  A    between atoms: _247  and  _248
REMARK  105  A    between atoms: _251  and  _253
REMARK  106  A    between atoms: _253  and  _254
REMARK  107  A    between atoms: _256  and  _258
REMARK  108  A    between atoms: _258  and  _259
REMARK  109  A    between atoms: _258  and  _261
REMARK  110  A    between atoms: _261  and  _262
REMARK  111  A    between atoms: _262  and  _263
REMARK  112  A    between atoms: _263  and  _264
REMARK  113  A    between atoms: _273  and  _275
REMARK  114  A    between atoms: _275  and  _276
REMARK  115  A    between atoms: _275  and  _278
REMARK  116  A    between atoms: _278  and  _279
REMARK  117  A    between atoms: _284  and  _286
REMARK  118  A    between atoms: _286  and  _287
REMARK  119  A    between atoms: _286  and  _289
REMARK  120  A    between atoms: _289  and  _290
REMARK  121  A    between atoms: _290  and  _291
REMARK  122  A    between atoms: _291  and  _292
REMARK  123  A    between atoms: _301  and  _303
REMARK  124  A    between atoms: _303  and  _304
REMARK  125  A    between atoms: _303  and  _306
REMARK  126  A    between atoms: _306  and  _307
REMARK  127  A    between atoms: _310  and  _312
REMARK  128  A    between atoms: _312  and  _313
REMARK  129  A    between atoms: _312  and  _315
REMARK  130  A    between atoms: _315  and  _316
REMARK  131  A    between atoms: _319  and  _321
REMARK  132  A    between atoms: _321  and  _322
REMARK  133  A    between atoms: _321  and  _324
REMARK  134  A    between atoms: _324  and  _325
REMARK  135  A    between atoms: _328  and  _330
REMARK  136  A    between atoms: _330  and  _331
REMARK  137  A    between atoms: _330  and  _333
REMARK  138  A    between atoms: _333  and  _334
REMARK  139  A    between atoms: _337  and  _339
REMARK  140  A    between atoms: _339  and  _340
REMARK  141  A    between atoms: _339  and  _342
REMARK  142  A    between atoms: _342  and  _343
REMARK  143  A    between atoms: _346  and  _348
REMARK  144  A    between atoms: _348  and  _349
REMARK  145  A    between atoms: _351  and  _353
REMARK  146  A    between atoms: _353  and  _354
REMARK  147  A    between atoms: _357  and  _359
REMARK  148  A    between atoms: _359  and  _360
REMARK  149  A    between atoms: _359  and  _362
REMARK  150  A    between atoms: _362  and  _363
REMARK  151  A    between atoms: _366  and  _368
REMARK  152  A    between atoms: _368  and  _369
REMARK  153  A    between atoms: _368  and  _371
REMARK  154  A    between atoms: _371  and  _372
REMARK  155  A    between atoms: _375  and  _377
REMARK  156  A    between atoms: _377  and  _378
REMARK  157  A    between atoms: _377  and  _380
REMARK  158  A    between atoms: _380  and  _381
REMARK  159  A    between atoms: _384  and  _386
REMARK  160  A    between atoms: _386  and  _387
REMARK  161  A    between atoms: _386  and  _389
REMARK  162  A    between atoms: _392  and  _394
REMARK  163  A    between atoms: _394  and  _395
REMARK  164  A    between atoms: _394  and  _397
REMARK  165  A    between atoms: _397  and  _398
REMARK  166  A    between atoms: _398  and  _399
REMARK  167  A    between atoms: _402  and  _404
REMARK  168  A    between atoms: _404  and  _405
REMARK  169  A    between atoms: _404  and  _407
REMARK  170  A    between atoms: _407  and  _408
REMARK  171  A    between atoms: _408  and  _409
REMARK  172  A    between atoms: _409  and  _410
REMARK  173  A    between atoms: _410  and  _411
REMARK  174  A    between atoms: _415  and  _417
REMARK  175  A    between atoms: _417  and  _418
REMARK  176  A    between atoms: _417  and  _420
REMARK  177  A    between atoms: _420  and  _421
REMARK  178  A    between atoms: _421  and  _422
REMARK  179  A    between atoms: _424  and  _426
REMARK  180  A    between atoms: _426  and  _427
REMARK  181  A    between atoms: _426  and  _429
REMARK  182  A    between atoms: _429  and  _430
REMARK  183  A    between atoms: _433  and  _435
REMARK  184  A    between atoms: _435  and  _436
REMARK  185  A    between atoms: _438  and  _440
REMARK  186  A    between atoms: _440  and  _441
REMARK  187  A    between atoms: _443  and  _445
REMARK  188  A    between atoms: _445  and  _446
REMARK  189  A    between atoms: _445  and  _448
REMARK  190  A    between atoms: _448  and  _449
REMARK  191  A    between atoms: _452  and  _454
REMARK  192  A    between atoms: _454  and  _455
REMARK  193  A    between atoms: _457  and  _459
REMARK  194  A    between atoms: _459  and  _460
REMARK  195  A    between atoms: _462  and  _464
REMARK  196  A    between atoms: _464  and  _465
REMARK  197  A    between atoms: _464  and  _467
REMARK  198  A    between atoms: _467  and  _468
REMARK  199  A    between atoms: _474  and  _476
REMARK  200  A    between atoms: _476  and  _477
REMARK  201  A    between atoms: _476  and  _479
REMARK  202  A    between atoms: _479  and  _480
REMARK  203  A    between atoms: _483  and  _485
REMARK  204  A    between atoms: _485  and  _486
REMARK  205  A    between atoms: _485  and  _488
REMARK  206  A    between atoms: _491  and  _493
REMARK  207  A    between atoms: _493  and  _494
REMARK  208  A    between atoms: _493  and  _496
REMARK  209  A    between atoms: _496  and  _497
REMARK  210  A    between atoms: _501  and  _502
REMARK  211  A    between atoms: _507  and  _509
REMARK  212  A    between atoms: _509  and  _510
REMARK  213  A    between atoms: _509  and  _512
REMARK  214  A    between atoms: _512  and  _513
REMARK  215  A    between atoms: _517  and  _518
REMARK  216  A    between atoms: _523  and  _525
REMARK  217  A    between atoms: _525  and  _526
REMARK  218  A    between atoms: _525  and  _528
REMARK  219  A    between atoms: _528  and  _529
REMARK  220  A    between atoms: _532  and  _534
REMARK  221  A    between atoms: _534  and  _535
REMARK  222  A    between atoms: _534  and  _537
REMARK  223  A    between atoms: _537  and  _538
REMARK  224  A    between atoms: _543  and  _545
REMARK  225  A    between atoms: _545  and  _546
REMARK  226  A    between atoms: _545  and  _548
REMARK  227  A    between atoms: _551  and  _553
REMARK  228  A    between atoms: _553  and  _554
REMARK  229  A    between atoms: _553  and  _556
REMARK  230  A    between atoms: _556  and  _557
REMARK  231  A    between atoms: _560  and  _562
REMARK  232  A    between atoms: _562  and  _563
REMARK  233  A    between atoms: _565  and  _567
REMARK  234  A    between atoms: _567  and  _568
REMARK  235  A    between atoms: _567  and  _570
REMARK  236  A    between atoms: _570  and  _571
REMARK  237  A    between atoms: _571  and  _572
REMARK  238  A    between atoms: _572  and  _573
REMARK                            x       y       z     vdW  Elec       q    Type
REMARK                         _______ _______ _______ _____ _____    ______ ____
ROOT
ATOM      1  O   HOH     1       9.959  11.158  11.769  0.00  0.00    +0.000 OA
ENDROOT
TORSDOF 0
REMARK  Name = ../refined-set-2016/4a6c/4a6c_pocket.pdb
REMARK  238 active torsions:
REMARK  status: ('A' for Active; 'I' for Inactive)
REMARK    1  A    between atoms: _1  and  _3
REMARK    2  A    between atoms: _3  and  _4
REMARK    3  A    between atoms: _3  and  _6
REMARK    4  A    between atoms: _6  and  _7
REMARK    5  A    between atoms: _7  and  _8
REMARK    6  A    between atoms: _8  and  _9
REMARK    7  A    between atoms: _18  and  _20
REMARK    8  A    between atoms: _20  and  _21
REMARK    9  A    between atoms: _20  and  _23
REMARK   10  A    between atoms: _23  and  _24
REMARK   11  A    between atoms: _27  and  _29
REMARK   12  A    between atoms: _29  and  _30
REMARK   13  A    between atoms: _29  and  _32
REMARK   14  A    between atoms: _32  and  _33
REMARK   15  A    between atoms: _36  and  _38
REMARK   16  A    between atoms: _38  and  _39
REMARK   17  A    between atoms: _38  and  _41
REMARK   18  A    between atoms: _41  and  _42
REMARK   19  A    between atoms: _45  and  _47
REMARK   20  A    between atoms: _47  and  _48
REMARK   21  A    between atoms: _47  and  _50
REMARK   22  A    between atoms: _50  and  _51
REMARK   23  A    between atoms: _54  and  _56
REMARK   24  A    between atoms: _56  and  _57
REMARK   25  A    between atoms: _59  and  _61
REMARK   26  A    between atoms: _61  and  _62
REMARK   27  A    between atoms: _65  and  _67
REMARK   28  A    between atoms: _67  and  _68
REMARK   29  A    between atoms: _67  and  _70
REMARK   30  A    between atoms: _70  and  _71
REMARK   31  A    between atoms: _74  and  _76
REMARK   32  A    between atoms: _76  and  _77
REMARK   33  A    between atoms: _76  and  _79
REMARK   34  A    between atoms: _79  and  _80
REMARK   35  A    between atoms: _83  and  _85
REMARK   36  A    between atoms: _85  and  _86
REMARK   37  A    between atoms: _85  and  _88
REMARK   38  A    between atoms: _88  and  _89
REMARK   39  A    between atoms: _92  and  _94
REMARK   40  A    between atoms: _94  and  _95
REMARK   41  A    between atoms: _94  and  _97
REMARK   42  A    between atoms: _100  and  _102
REMARK   43  A    between atoms: _102  and  _103
REMARK   44  A    between atoms: _102  and  _105
REMARK   45  A    between atoms: _105  and  _106
REMARK   46  A    between atoms: _106  and  _107
REMARK   47  A    between atoms: _107  and  _108
REMARK   48  A    between atoms: _108  and  _109
REMARK   49  A    between atoms: _113  and  _115
REMARK   50  A    between atoms: _115  and  _116
REMARK   51  A    between atoms: _115  and  _118
REMARK   52  A    between atoms: _118  and  _119
REMARK   53  A    between atoms: _119  and  _120
REMARK   54  A    between atoms: _122  and  _124
REMARK   55  A    between atoms: _124  and  _125
REMARK   56  A    between atoms: _124  and  _127
REMARK   57  A    between atoms: _127  and  _128
REMARK   58  A    between atoms: _131  and  _133
REMARK   59  A    between atoms: _133  and  _134
REMARK   60  A    between atoms: _136  and  _138
REMARK   61  A    between atoms: _138  and  _139
REMARK   62  A    between atoms: _141  and  _143
REMARK   63  A    between atoms: _143  and  _144
REMARK   64  A    between atoms: _143  and  _146
REMARK   65  A    between atoms: _146  and  _147
REMARK   66  A    between atoms: _150  and  _152
REMARK   67  A    between atoms: _152  and  _153
REMARK   68  A    between atoms: _155  and  _157
REMARK   69  A    between atoms: _157  and  _158
REMARK   70  A    between atoms: _160  and  _162
REMARK   71  A    between atoms: _162  and  _163
REMARK   72  A    between atoms: _162  and  _165
REMARK   73  A    between atoms: _165  and  _166
REMARK   74  A    between atoms: _172  and  _174
REMARK   75  A    between atoms: _174  and  _175
REMARK   76  A    between atoms: _174  and  _177
REMARK   77  A    between atoms: _177  and  _178
REMARK   78  A    between atoms: _181  and  _183
REMARK   79  A    between atoms: _183  and  _184
REMARK   80  A    between atoms: _183  and  _186
REMARK   81  A    between atoms: _189  and  _191
REMARK   82  A    between atoms: _191  and  _192
REMARK   83  A    between atoms: _191  and  _194
REMARK   84  A    between atoms: _194  and  _195
REMARK   85  A    between atoms: _198  and  _200
REMARK   86  A    between atoms: _200  and  _201
REMARK   87  A    between atoms: _200  and  _203
REMARK   88  A    between atoms: _203  and  _204
REMARK   89  A    between atoms: _208  and  _209
REMARK   90  A    between atoms: _214  and  _216
REMARK   91  A    between atoms: _216  and  _217
REMARK   92  A    between atoms: _216  and  _219
REMARK   93  A    between atoms: _219  and  _220
REMARK   94  A    between atoms: _223  and  _225
REMARK   95  A    between atoms: _225  and  _226
REMARK   96  A    between atoms: _225  and  _228
REMARK   97  A    between atoms: _228  and  _229
REMARK   98  A    between atoms: _234  and  _236
REMARK   99  A    between atoms: _236  and  _237
REMARK  100  A    between atoms: _236  and  _239
REMARK  101  A    between atoms: _242  and  _244
REMARK  102  A    between atoms: _244  and  _245
REMARK  103  A    between atoms: _244  and  _247
REMARK  104  A    between atoms: _247  and  _248
REMARK  105  A    between atoms: _251  and  _253
REMARK  106  A    between atoms: _253  and  _254
REMARK  107  A    between atoms: _256  and  _258
REMARK  108  A    between atoms: _258  and  _259
REMARK  109  A    between atoms: _258  and  _261
REMARK  110  A    between atoms: _261  and  _262
REMARK  111  A    between atoms: _262  and  _263
REMARK  112  A    between atoms: _263  and  _264
REMARK  113  A    between atoms: _273  and  _275
REMARK  114  A    between atoms: _275  and  _276
REMARK  115  A    between atoms: _275  and  _278
REMARK  116  A    between atoms: _278  and  _279
REMARK  117  A    between atoms: _284  and  _286
REMARK  118  A    between atoms: _286  and  _287
REMARK  119  A    between atoms: _286  and  _289
REMARK  120  A    between atoms: _289  and  _290
REMARK  121  A    between atoms: _290  and  _291
REMARK  122  A    between atoms: _291  and  _292
REMARK  123  A    between atoms: _301  and  _303
REMARK  124  A    between atoms: _303  and  _304
REMARK  125  A    between atoms: _303  and  _306
REMARK  126  A    between atoms: _306  and  _307
REMARK  127  A    between atoms: _310  and  _312
REMARK  128  A    between atoms: _312  and  _313
REMARK  129  A    between atoms: _312  and  _315
REMARK  130  A    between atoms: _315  and  _316
REMARK  131  A    between atoms: _319  and  _321
REMARK  132  A    between atoms: _321  and  _322
REMARK  133  A    between atoms: _321  and  _324
REMARK  134  A    between atoms: _324  and  _325
REMARK  135  A    between atoms: _328  and  _330
REMARK  136  A    between atoms: _330  and  _331
REMARK  137  A    between atoms: _330  and  _333
REMARK  138  A    between atoms: _333  and  _334
REMARK  139  A    between atoms: _337  and  _339
REMARK  140  A    between atoms: _339  and  _340
REMARK  141  A    between atoms: _339  and  _342
REMARK  142  A    between atoms: _342  and  _343
REMARK  143  A    between atoms: _346  and  _348
REMARK  144  A    between atoms: _348  and  _349
REMARK  145  A    between atoms: _351  and  _353
REMARK  146  A    between atoms: _353  and  _354
REMARK  147  A    between atoms: _357  and  _359
REMARK  148  A    between atoms: _359  and  _360
REMARK  149  A    between atoms: _359  and  _362
REMARK  150  A    between atoms: _362  and  _363
REMARK  151  A    between atoms: _366  and  _368
REMARK  152  A    between atoms: _368  and  _369
REMARK  153  A    between atoms: _368  and  _371
REMARK  154  A    between atoms: _371  and  _372
REMARK  155  A    between atoms: _375  and  _377
REMARK  156  A    between atoms: _377  and  _378
REMARK  157  A    between atoms: _377  and  _380
REMARK  158  A    between atoms: _380  and  _381
REMARK  159  A    between atoms: _384  and  _386
REMARK  160  A    between atoms: _386  and  _387
REMARK  161  A    between atoms: _386  and  _389
REMARK  162  A    between atoms: _392  and  _394
REMARK  163  A    between atoms: _394  and  _395
REMARK  164  A    between atoms: _394  and  _397
REMARK  165  A    between atoms: _397  and  _398
REMARK  166  A    between atoms: _398  and  _399
REMARK  167  A    between atoms: _402  and  _404
REMARK  168  A    between atoms: _404  and  _405
REMARK  169  A    between atoms: _404  and  _407
REMARK  170  A    between atoms: _407  and  _408
REMARK  171  A    between atoms: _408  and  _409
REMARK  172  A    between atoms: _409  and  _410
REMARK  173  A    between atoms: _410  and  _411
REMARK  174  A    between atoms: _415  and  _417
REMARK  175  A    between atoms: _417  and  _418
REMARK  176  A    between atoms: _417  and  _420
REMARK  177  A    between atoms: _420  and  _421
REMARK  178  A    between atoms: _421  and  _422
REMARK  179  A    between atoms: _424  and  _426
REMARK  180  A    between atoms: _426  and  _427
REMARK  181  A    between atoms: _426  and  _429
REMARK  182  A    between atoms: _429  and  _430
REMARK  183  A    between atoms: _433  and  _435
REMARK  184  A    between atoms: _435  and  _436
REMARK  185  A    between atoms: _438  and  _440
REMARK  186  A    between atoms: _440  and  _441
REMARK  187  A    between atoms: _443  and  _445
REMARK  188  A    between atoms: _445  and  _446
REMARK  189  A    between atoms: _445  and  _448
REMARK  190  A    between atoms: _448  and  _449
REMARK  191  A    between atoms: _452  and  _454
REMARK  192  A    between atoms: _454  and  _455
REMARK  193  A    between atoms: _457  and  _459
REMARK  194  A    between atoms: _459  and  _460
REMARK  195  A    between atoms: _462  and  _464
REMARK  196  A    between atoms: _464  and  _465
REMARK  197  A    between atoms: _464  and  _467
REMARK  198  A    between atoms: _467  and  _468
REMARK  199  A    between atoms: _474  and  _476
REMARK  200  A    between atoms: _476  and  _477
REMARK  201  A    between atoms: _476  and  _479
REMARK  202  A    between atoms: _479  and  _480
REMARK  203  A    between atoms: _483  and  _485
REMARK  204  A    between atoms: _485  and  _486
REMARK  205  A    between atoms: _485  and  _488
REMARK  206  A    between atoms: _491  and  _493
REMARK  207  A    between atoms: _493  and  _494
REMARK  208  A    between atoms: _493  and  _496
REMARK  209  A    between atoms: _496  and  _497
REMARK  210  A    between atoms: _501  and  _502
REMARK  211  A    between atoms: _507  and  _509
REMARK  212  A    between atoms: _509  and  _510
REMARK  213  A    between atoms: _509  and  _512
REMARK  214  A    between atoms: _512  and  _513
REMARK  215  A    between atoms: _517  and  _518
REMARK  216  A    between atoms: _523  and  _525
REMARK  217  A    between atoms: _525  and  _526
REMARK  218  A    between atoms: _525  and  _528
REMARK  219  A    between atoms: _528  and  _529
REMARK  220  A    between atoms: _532  and  _534
REMARK  221  A    between atoms: _534  and  _535
REMARK  222  A    between atoms: _534  and  _537
REMARK  223  A    between atoms: _537  and  _538
REMARK  224  A    between atoms: _543  and  _545
REMARK  225  A    between atoms: _545  and  _546
REMARK  226  A    between atoms: _545  and  _548
REMARK  227  A    between atoms: _551  and  _553
REMARK  228  A    between atoms: _553  and  _554
REMARK  229  A    between atoms: _553  and  _556
REMARK  230  A    between atoms: _556  and  _557
REMARK  231  A    between atoms: _560  and  _562
REMARK  232  A    between atoms: _562  and  _563
REMARK  233  A    between atoms: _565  and  _567
REMARK  234  A    between atoms: _567  and  _568
REMARK  235  A    between atoms: _567  and  _570
REMARK  236  A    between atoms: _570  and  _571
REMARK  237  A    between atoms: _571  and  _572
REMARK  238  A    between atoms: _572  and  _573
REMARK                            x       y       z     vdW  Elec       q    Type
REMARK                         _______ _______ _______ _____ _____    ______ ____
ROOT
ATOM      1  O   HOH     1       5.058  25.798   0.354  0.00  0.00    +0.000 OA
ENDROOT
TORSDOF 0
REMARK  Name = ../refined-set-2016/4a6c/4a6c_pocket.pdb
REMARK  238 active torsions:
REMARK  status: ('A' for Active; 'I' for Inactive)
REMARK    1  A    between atoms: _1  and  _3
REMARK    2  A    between atoms: _3  and  _4
REMARK    3  A    between atoms: _3  and  _6
REMARK    4  A    between atoms: _6  and  _7
REMARK    5  A    between atoms: _7  and  _8
REMARK    6  A    between atoms: _8  and  _9
REMARK    7  A    between atoms: _18  and  _20
REMARK    8  A    between atoms: _20  and  _21
REMARK    9  A    between atoms: _20  and  _23
REMARK   10  A    between atoms: _23  and  _24
REMARK   11  A    between atoms: _27  and  _29
REMARK   12  A    between atoms: _29  and  _30
REMARK   13  A    between atoms: _29  and  _32
REMARK   14  A    between atoms: _32  and  _33
REMARK   15  A    between atoms: _36  and  _38
REMARK   16  A    between atoms: _38  and  _39
REMARK   17  A    between atoms: _38  and  _41
REMARK   18  A    between atoms: _41  and  _42
REMARK   19  A    between atoms: _45  and  _47
REMARK   20  A    between atoms: _47  and  _48
REMARK   21  A    between atoms: _47  and  _50
REMARK   22  A    between atoms: _50  and  _51
REMARK   23  A    between atoms: _54  and  _56
REMARK   24  A    between atoms: _56  and  _57
REMARK   25  A    between atoms: _59  and  _61
REMARK   26  A    between atoms: _61  and  _62
REMARK   27  A    between atoms: _65  and  _67
REMARK   28  A    between atoms: _67  and  _68
REMARK   29  A    between atoms: _67  and  _70
REMARK   30  A    between atoms: _70  and  _71
REMARK   31  A    between atoms: _74  and  _76
REMARK   32  A    between atoms: _76  and  _77
REMARK   33  A    between atoms: _76  and  _79
REMARK   34  A    between atoms: _79  and  _80
REMARK   35  A    between atoms: _83  and  _85
REMARK   36  A    between atoms: _85  and  _86
REMARK   37  A    between atoms: _85  and  _88
REMARK   38  A    between atoms: _88  and  _89
REMARK   39  A    between atoms: _92  and  _94
REMARK   40  A    between atoms: _94  and  _95
REMARK   41  A    between atoms: _94  and  _97
REMARK   42  A    between atoms: _100  and  _102
REMARK   43  A    between atoms: _102  and  _103
REMARK   44  A    between atoms: _102  and  _105
REMARK   45  A    between atoms: _105  and  _106
REMARK   46  A    between atoms: _106  and  _107
REMARK   47  A    between atoms: _107  and  _108
REMARK   48  A    between atoms: _108  and  _109
REMARK   49  A    between atoms: _113  and  _115
REMARK   50  A    between atoms: _115  and  _116
REMARK   51  A    between atoms: _115  and  _118
REMARK   52  A    between atoms: _118  and  _119
REMARK   53  A    between atoms: _119  and  _120
REMARK   54  A    between atoms: _122  and  _124
REMARK   55  A    between atoms: _124  and  _125
REMARK   56  A    between atoms: _124  and  _127
REMARK   57  A    between atoms: _127  and  _128
REMARK   58  A    between atoms: _131  and  _133
REMARK   59  A    between atoms: _133  and  _134
REMARK   60  A    between atoms: _136  and  _138
REMARK   61  A    between atoms: _138  and  _139
REMARK   62  A    between atoms: _141  and  _143
REMARK   63  A    between atoms: _143  and  _144
REMARK   64  A    between atoms: _143  and  _146
REMARK   65  A    between atoms: _146  and  _147
REMARK   66  A    between atoms: _150  and  _152
REMARK   67  A    between atoms: _152  and  _153
REMARK   68  A    between atoms: _155  and  _157
REMARK   69  A    between atoms: _157  and  _158
REMARK   70  A    between atoms: _160  and  _162
REMARK   71  A    between atoms: _162  and  _163
REMARK   72  A    between atoms: _162  and  _165
REMARK   73  A    between atoms: _165  and  _166
REMARK   74  A    between atoms: _172  and  _174
REMARK   75  A    between atoms: _174  and  _175
REMARK   76  A    between atoms: _174  and  _177
REMARK   77  A    between atoms: _177  and  _178
REMARK   78  A    between atoms: _181  and  _183
REMARK   79  A    between atoms: _183  and  _184
REMARK   80  A    between atoms: _183  and  _186
REMARK   81  A    between atoms: _189  and  _191
REMARK   82  A    between atoms: _191  and  _192
REMARK   83  A    between atoms: _191  and  _194
REMARK   84  A    between atoms: _194  and  _195
REMARK   85  A    between atoms: _198  and  _200
REMARK   86  A    between atoms: _200  and  _201
REMARK   87  A    between atoms: _200  and  _203
REMARK   88  A    between atoms: _203  and  _204
REMARK   89  A    between atoms: _208  and  _209
REMARK   90  A    between atoms: _214  and  _216
REMARK   91  A    between atoms: _216  and  _217
REMARK   92  A    between atoms: _216  and  _219
REMARK   93  A    between atoms: _219  and  _220
REMARK   94  A    between atoms: _223  and  _225
REMARK   95  A    between atoms: _225  and  _226
REMARK   96  A    between atoms: _225  and  _228
REMARK   97  A    between atoms: _228  and  _229
REMARK   98  A    between atoms: _234  and  _236
REMARK   99  A    between atoms: _236  and  _237
REMARK  100  A    between atoms: _236  and  _239
REMARK  101  A    between atoms: _242  and  _244
REMARK  102  A    between atoms: _244  and  _245
REMARK  103  A    between atoms: _244  and  _247
REMARK  104  A    between atoms: _247  and  _248
REMARK  105  A    between atoms: _251  and  _253
REMARK  106  A    between atoms: _253  and  _254
REMARK  107  A    between atoms: _256  and  _258
REMARK  108  A    between atoms: _258  and  _259
REMARK  109  A    between atoms: _258  and  _261
REMARK  110  A    between atoms: _261  and  _262
REMARK  111  A    between atoms: _262  and  _263
REMARK  112  A    between atoms: _263  and  _264
REMARK  113  A    between atoms: _273  and  _275
REMARK  114  A    between atoms: _275  and  _276
REMARK  115  A    between atoms: _275  and  _278
REMARK  116  A    between atoms: _278  and  _279
REMARK  117  A    between atoms: _284  and  _286
REMARK  118  A    between atoms: _286  and  _287
REMARK  119  A    between atoms: _286  and  _289
REMARK  120  A    between atoms: _289  and  _290
REMARK  121  A    between atoms: _290  and  _291
REMARK  122  A    between atoms: _291  and  _292
REMARK  123  A    between atoms: _301  and  _303
REMARK  124  A    between atoms: _303  and  _304
REMARK  125  A    between atoms: _303  and  _306
REMARK  126  A    between atoms: _306  and  _307
REMARK  127  A    between atoms: _310  and  _312
REMARK  128  A    between atoms: _312  and  _313
REMARK  129  A    between atoms: _312  and  _315
REMARK  130  A    between atoms: _315  and  _316
REMARK  131  A    between atoms: _319  and  _321
REMARK  132  A    between atoms: _321  and  _322
REMARK  133  A    between atoms: _321  and  _324
REMARK  134  A    between atoms: _324  and  _325
REMARK  135  A    between atoms: _328  and  _330
REMARK  136  A    between atoms: _330  and  _331
REMARK  137  A    between atoms: _330  and  _333
REMARK  138  A    between atoms: _333  and  _334
REMARK  139  A    between atoms: _337  and  _339
REMARK  140  A    between atoms: _339  and  _340
REMARK  141  A    between atoms: _339  and  _342
REMARK  142  A    between atoms: _342  and  _343
REMARK  143  A    between atoms: _346  and  _348
REMARK  144  A    between atoms: _348  and  _349
REMARK  145  A    between atoms: _351  and  _353
REMARK  146  A    between atoms: _353  and  _354
REMARK  147  A    between atoms: _357  and  _359
REMARK  148  A    between atoms: _359  and  _360
REMARK  149  A    between atoms: _359  and  _362
REMARK  150  A    between atoms: _362  and  _363
REMARK  151  A    between atoms: _366  and  _368
REMARK  152  A    between atoms: _368  and  _369
REMARK  153  A    between atoms: _368  and  _371
REMARK  154  A    between atoms: _371  and  _372
REMARK  155  A    between atoms: _375  and  _377
REMARK  156  A    between atoms: _377  and  _378
REMARK  157  A    between atoms: _377  and  _380
REMARK  158  A    between atoms: _380  and  _381
REMARK  159  A    between atoms: _384  and  _386
REMARK  160  A    between atoms: _386  and  _387
REMARK  161  A    between atoms: _386  and  _389
REMARK  162  A    between atoms: _392  and  _394
REMARK  163  A    between atoms: _394  and  _395
REMARK  164  A    between atoms: _394  and  _397
REMARK  165  A    between atoms: _397  and  _398
REMARK  166  A    between atoms: _398  and  _399
REMARK  167  A    between atoms: _402  and  _404
REMARK  168  A    between atoms: _404  and  _405
REMARK  169  A    between atoms: _404  and  _407
REMARK  170  A    between atoms: _407  and  _408
REMARK  171  A    between atoms: _408  and  _409
REMARK  172  A    between atoms: _409  and  _410
REMARK  173  A    between atoms: _410  and  _411
REMARK  174  A    between atoms: _415  and  _417
REMARK  175  A    between atoms: _417  and  _418
REMARK  176  A    between atoms: _417  and  _420
REMARK  177  A    between atoms: _420  and  _421
REMARK  178  A    between atoms: _421  and  _422
REMARK  179  A    between atoms: _424  and  _426
REMARK  180  A    between atoms: _426  and  _427
REMARK  181  A    between atoms: _426  and  _429
REMARK  182  A    between atoms: _429  and  _430
REMARK  183  A    between atoms: _433  and  _435
REMARK  184  A    between atoms: _435  and  _436
REMARK  185  A    between atoms: _438  and  _440
REMARK  186  A    between atoms: _440  and  _441
REMARK  187  A    between atoms: _443  and  _445
REMARK  188  A    between atoms: _445  and  _446
REMARK  189  A    between atoms: _445  and  _448
REMARK  190  A    between atoms: _448  and  _449
REMARK  191  A    between atoms: _452  and  _454
REMARK  192  A    between atoms: _454  and  _455
REMARK  193  A    between atoms: _457  and  _459
REMARK  194  A    between atoms: _459  and  _460
REMARK  195  A    between atoms: _462  and  _464
REMARK  196  A    between atoms: _464  and  _465
REMARK  197  A    between atoms: _464  and  _467
REMARK  198  A    between atoms: _467  and  _468
REMARK  199  A    between atoms: _474  and  _476
REMARK  200  A    between atoms: _476  and  _477
REMARK  201  A    between atoms: _476  and  _479
REMARK  202  A    between atoms: _479  and  _480
REMARK  203  A    between atoms: _483  and  _485
REMARK  204  A    between atoms: _485  and  _486
REMARK  205  A    between atoms: _485  and  _488
REMARK  206  A    between atoms: _491  and  _493
REMARK  207  A    between atoms: _493  and  _494
REMARK  208  A    between atoms: _493  and  _496
REMARK  209  A    between atoms: _496  and  _497
REMARK  210  A    between atoms: _501  and  _502
REMARK  211  A    between atoms: _507  and  _509
REMARK  212  A    between atoms: _509  and  _510
REMARK  213  A    between atoms: _509  and  _512
REMARK  214  A    between atoms: _512  and  _513
REMARK  215  A    between atoms: _517  and  _518
REMARK  216  A    between atoms: _523  and  _525
REMARK  217  A    between atoms: _525  and  _526
REMARK  218  A    between atoms: _525  and  _528
REMARK  219  A    between atoms: _528  and  _529
REMARK  220  A    between atoms: _532  and  _534
REMARK  221  A    between atoms: _534  and  _535
REMARK  222  A    between atoms: _534  and  _537
REMARK  223  A    between atoms: _537  and  _538
REMARK  224  A    between atoms: _543  and  _545
REMARK  225  A    between atoms: _545  and  _546
REMARK  226  A    between atoms: _545  and  _548
REMARK  227  A    between atoms: _551  and  _553
REMARK  228  A    between atoms: _553  and  _554
REMARK  229  A    between atoms: _553  and  _556
REMARK  230  A    between atoms: _556  and  _557
REMARK  231  A    between atoms: _560  and  _562
REMARK  232  A    between atoms: _562  and  _563
REMARK  233  A    between atoms: _565  and  _567
REMARK  234  A    between atoms: _567  and  _568
REMARK  235  A    between atoms: _567  and  _570
REMARK  236  A    between atoms: _570  and  _571
REMARK  237  A    between atoms: _571  and  _572
REMARK  238  A    between atoms: _572  and  _573
REMARK                            x       y       z     vdW  Elec       q    Type
REMARK                         _______ _______ _______ _____ _____    ______ ____
ROOT
ATOM      1  O   HOH     1       5.168  26.153   2.983  0.00  0.00    +0.000 OA
ENDROOT
TORSDOF 0
REMARK  Name = ../refined-set-2016/4a6c/4a6c_pocket.pdb
REMARK  238 active torsions:
REMARK  status: ('A' for Active; 'I' for Inactive)
REMARK    1  A    between atoms: _1  and  _3
REMARK    2  A    between atoms: _3  and  _4
REMARK    3  A    between atoms: _3  and  _6
REMARK    4  A    between atoms: _6  and  _7
REMARK    5  A    between atoms: _7  and  _8
REMARK    6  A    between atoms: _8  and  _9
REMARK    7  A    between atoms: _18  and  _20
REMARK    8  A    between atoms: _20  and  _21
REMARK    9  A    between atoms: _20  and  _23
REMARK   10  A    between atoms: _23  and  _24
REMARK   11  A    between atoms: _27  and  _29
REMARK   12  A    between atoms: _29  and  _30
REMARK   13  A    between atoms: _29  and  _32
REMARK   14  A    between atoms: _32  and  _33
REMARK   15  A    between atoms: _36  and  _38
REMARK   16  A    between atoms: _38  and  _39
REMARK   17  A    between atoms: _38  and  _41
REMARK   18  A    between atoms: _41  and  _42
REMARK   19  A    between atoms: _45  and  _47
REMARK   20  A    between atoms: _47  and  _48
REMARK   21  A    between atoms: _47  and  _50
REMARK   22  A    between atoms: _50  and  _51
REMARK   23  A    between atoms: _54  and  _56
REMARK   24  A    between atoms: _56  and  _57
REMARK   25  A    between atoms: _59  and  _61
REMARK   26  A    between atoms: _61  and  _62
REMARK   27  A    between atoms: _65  and  _67
REMARK   28  A    between atoms: _67  and  _68
REMARK   29  A    between atoms: _67  and  _70
REMARK   30  A    between atoms: _70  and  _71
REMARK   31  A    between atoms: _74  and  _76
REMARK   32  A    between atoms: _76  and  _77
REMARK   33  A    between atoms: _76  and  _79
REMARK   34  A    between atoms: _79  and  _80
REMARK   35  A    between atoms: _83  and  _85
REMARK   36  A    between atoms: _85  and  _86
REMARK   37  A    between atoms: _85  and  _88
REMARK   38  A    between atoms: _88  and  _89
REMARK   39  A    between atoms: _92  and  _94
REMARK   40  A    between atoms: _94  and  _95
REMARK   41  A    between atoms: _94  and  _97
REMARK   42  A    between atoms: _100  and  _102
REMARK   43  A    between atoms: _102  and  _103
REMARK   44  A    between atoms: _102  and  _105
REMARK   45  A    between atoms: _105  and  _106
REMARK   46  A    between atoms: _106  and  _107
REMARK   47  A    between atoms: _107  and  _108
REMARK   48  A    between atoms: _108  and  _109
REMARK   49  A    between atoms: _113  and  _115
REMARK   50  A    between atoms: _115  and  _116
REMARK   51  A    between atoms: _115  and  _118
REMARK   52  A    between atoms: _118  and  _119
REMARK   53  A    between atoms: _119  and  _120
REMARK   54  A    between atoms: _122  and  _124
REMARK   55  A    between atoms: _124  and  _125
REMARK   56  A    between atoms: _124  and  _127
REMARK   57  A    between atoms: _127  and  _128
REMARK   58  A    between atoms: _131  and  _133
REMARK   59  A    between atoms: _133  and  _134
REMARK   60  A    between atoms: _136  and  _138
REMARK   61  A    between atoms: _138  and  _139
REMARK   62  A    between atoms: _141  and  _143
REMARK   63  A    between atoms: _143  and  _144
REMARK   64  A    between atoms: _143  and  _146
REMARK   65  A    between atoms: _146  and  _147
REMARK   66  A    between atoms: _150  and  _152
REMARK   67  A    between atoms: _152  and  _153
REMARK   68  A    between atoms: _155  and  _157
REMARK   69  A    between atoms: _157  and  _158
REMARK   70  A    between atoms: _160  and  _162
REMARK   71  A    between atoms: _162  and  _163
REMARK   72  A    between atoms: _162  and  _165
REMARK   73  A    between atoms: _165  and  _166
REMARK   74  A    between atoms: _172  and  _174
REMARK   75  A    between atoms: _174  and  _175
REMARK   76  A    between atoms: _174  and  _177
REMARK   77  A    between atoms: _177  and  _178
REMARK   78  A    between atoms: _181  and  _183
REMARK   79  A    between atoms: _183  and  _184
REMARK   80  A    between atoms: _183  and  _186
REMARK   81  A    between atoms: _189  and  _191
REMARK   82  A    between atoms: _191  and  _192
REMARK   83  A    between atoms: _191  and  _194
REMARK   84  A    between atoms: _194  and  _195
REMARK   85  A    between atoms: _198  and  _200
REMARK   86  A    between atoms: _200  and  _201
REMARK   87  A    between atoms: _200  and  _203
REMARK   88  A    between atoms: _203  and  _204
REMARK   89  A    between atoms: _208  and  _209
REMARK   90  A    between atoms: _214  and  _216
REMARK   91  A    between atoms: _216  and  _217
REMARK   92  A    between atoms: _216  and  _219
REMARK   93  A    between atoms: _219  and  _220
REMARK   94  A    between atoms: _223  and  _225
REMARK   95  A    between atoms: _225  and  _226
REMARK   96  A    between atoms: _225  and  _228
REMARK   97  A    between atoms: _228  and  _229
REMARK   98  A    between atoms: _234  and  _236
REMARK   99  A    between atoms: _236  and  _237
REMARK  100  A    between atoms: _236  and  _239
REMARK  101  A    between atoms: _242  and  _244
REMARK  102  A    between atoms: _244  and  _245
REMARK  103  A    between atoms: _244  and  _247
REMARK  104  A    between atoms: _247  and  _248
REMARK  105  A    between atoms: _251  and  _253
REMARK  106  A    between atoms: _253  and  _254
REMARK  107  A    between atoms: _256  and  _258
REMARK  108  A    between atoms: _258  and  _259
REMARK  109  A    between atoms: _258  and  _261
REMARK  110  A    between atoms: _261  and  _262
REMARK  111  A    between atoms: _262  and  _263
REMARK  112  A    between atoms: _263  and  _264
REMARK  113  A    between atoms: _273  and  _275
REMARK  114  A    between atoms: _275  and  _276
REMARK  115  A    between atoms: _275  and  _278
REMARK  116  A    between atoms: _278  and  _279
REMARK  117  A    between atoms: _284  and  _286
REMARK  118  A    between atoms: _286  and  _287
REMARK  119  A    between atoms: _286  and  _289
REMARK  120  A    between atoms: _289  and  _290
REMARK  121  A    between atoms: _290  and  _291
REMARK  122  A    between atoms: _291  and  _292
REMARK  123  A    between atoms: _301  and  _303
REMARK  124  A    between atoms: _303  and  _304
REMARK  125  A    between atoms: _303  and  _306
REMARK  126  A    between atoms: _306  and  _307
REMARK  127  A    between atoms: _310  and  _312
REMARK  128  A    between atoms: _312  and  _313
REMARK  129  A    between atoms: _312  and  _315
REMARK  130  A    between atoms: _315  and  _316
REMARK  131  A    between atoms: _319  and  _321
REMARK  132  A    between atoms: _321  and  _322
REMARK  133  A    between atoms: _321  and  _324
REMARK  134  A    between atoms: _324  and  _325
REMARK  135  A    between atoms: _328  and  _330
REMARK  136  A    between atoms: _330  and  _331
REMARK  137  A    between atoms: _330  and  _333
REMARK  138  A    between atoms: _333  and  _334
REMARK  139  A    between atoms: _337  and  _339
REMARK  140  A    between atoms: _339  and  _340
REMARK  141  A    between atoms: _339  and  _342
REMARK  142  A    between atoms: _342  and  _343
REMARK  143  A    between atoms: _346  and  _348
REMARK  144  A    between atoms: _348  and  _349
REMARK  145  A    between atoms: _351  and  _353
REMARK  146  A    between atoms: _353  and  _354
REMARK  147  A    between atoms: _357  and  _359
REMARK  148  A    between atoms: _359  and  _360
REMARK  149  A    between atoms: _359  and  _362
REMARK  150  A    between atoms: _362  and  _363
REMARK  151  A    between atoms: _366  and  _368
REMARK  152  A    between atoms: _368  and  _369
REMARK  153  A    between atoms: _368  and  _371
REMARK  154  A    between atoms: _371  and  _372
REMARK  155  A    between atoms: _375  and  _377
REMARK  156  A    between atoms: _377  and  _378
REMARK  157  A    between atoms: _377  and  _380
REMARK  158  A    between atoms: _380  and  _381
REMARK  159  A    between atoms: _384  and  _386
REMARK  160  A    between atoms: _386  and  _387
REMARK  161  A    between atoms: _386  and  _389
REMARK  162  A    between atoms: _392  and  _394
REMARK  163  A    between atoms: _394  and  _395
REMARK  164  A    between atoms: _394  and  _397
REMARK  165  A    between atoms: _397  and  _398
REMARK  166  A    between atoms: _398  and  _399
REMARK  167  A    between atoms: _402  and  _404
REMARK  168  A    between atoms: _404  and  _405
REMARK  169  A    between atoms: _404  and  _407
REMARK  170  A    between atoms: _407  and  _408
REMARK  171  A    between atoms: _408  and  _409
REMARK  172  A    between atoms: _409  and  _410
REMARK  173  A    between atoms: _410  and  _411
REMARK  174  A    between atoms: _415  and  _417
REMARK  175  A    between atoms: _417  and  _418
REMARK  176  A    between atoms: _417  and  _420
REMARK  177  A    between atoms: _420  and  _421
REMARK  178  A    between atoms: _421  and  _422
REMARK  179  A    between atoms: _424  and  _426
REMARK  180  A    between atoms: _426  and  _427
REMARK  181  A    between atoms: _426  and  _429
REMARK  182  A    between atoms: _429  and  _430
REMARK  183  A    between atoms: _433  and  _435
REMARK  184  A    between atoms: _435  and  _436
REMARK  185  A    between atoms: _438  and  _440
REMARK  186  A    between atoms: _440  and  _441
REMARK  187  A    between atoms: _443  and  _445
REMARK  188  A    between atoms: _445  and  _446
REMARK  189  A    between atoms: _445  and  _448
REMARK  190  A    between atoms: _448  and  _449
REMARK  191  A    between atoms: _452  and  _454
REMARK  192  A    between atoms: _454  and  _455
REMARK  193  A    between atoms: _457  and  _459
REMARK  194  A    between atoms: _459  and  _460
REMARK  195  A    between atoms: _462  and  _464
REMARK  196  A    between atoms: _464  and  _465
REMARK  197  A    between atoms: _464  and  _467
REMARK  198  A    between atoms: _467  and  _468
REMARK  199  A    between atoms: _474  and  _476
REMARK  200  A    between atoms: _476  and  _477
REMARK  201  A    between atoms: _476  and  _479
REMARK  202  A    between atoms: _479  and  _480
REMARK  203  A    between atoms: _483  and  _485
REMARK  204  A    between atoms: _485  and  _486
REMARK  205  A    between atoms: _485  and  _488
REMARK  206  A    between atoms: _491  and  _493
REMARK  207  A    between atoms: _493  and  _494
REMARK  208  A    between atoms: _493  and  _496
REMARK  209  A    between atoms: _496  and  _497
REMARK  210  A    between atoms: _501  and  _502
REMARK  211  A    between atoms: _507  and  _509
REMARK  212  A    between atoms: _509  and  _510
REMARK  213  A    between atoms: _509  and  _512
REMARK  214  A    between atoms: _512  and  _513
REMARK  215  A    between atoms: _517  and  _518
REMARK  216  A    between atoms: _523  and  _525
REMARK  217  A    between atoms: _525  and  _526
REMARK  218  A    between atoms: _525  and  _528
REMARK  219  A    between atoms: _528  and  _529
REMARK  220  A    between atoms: _532  and  _534
REMARK  221  A    between atoms: _534  and  _535
REMARK  222  A    between atoms: _534  and  _537
REMARK  223  A    between atoms: _537  and  _538
REMARK  224  A    between atoms: _543  and  _545
REMARK  225  A    between atoms: _545  and  _546
REMARK  226  A    between atoms: _545  and  _548
REMARK  227  A    between atoms: _551  and  _553
REMARK  228  A    between atoms: _553  and  _554
REMARK  229  A    between atoms: _553  and  _556
REMARK  230  A    between atoms: _556  and  _557
REMARK  231  A    between atoms: _560  and  _562
REMARK  232  A    between atoms: _562  and  _563
REMARK  233  A    between atoms: _565  and  _567
REMARK  234  A    between atoms: _567  and  _568
REMARK  235  A    between atoms: _567  and  _570
REMARK  236  A    between atoms: _570  and  _571
REMARK  237  A    between atoms: _571  and  _572
REMARK  238  A    between atoms: _572  and  _573
REMARK                            x       y       z     vdW  Elec       q    Type
REMARK                         _______ _______ _______ _____ _____    ______ ____
ROOT
ATOM      1  O   HOH     1      17.184  13.569  14.861  0.00  0.00    +0.000 OA
ENDROOT
TORSDOF 0
