REMARK  Name = ../refined-set-2016/4pp3/4pp3_pocket.pdb
REMARK  248 active torsions:
REMARK  status: ('A' for Active; 'I' for Inactive)
REMARK    1  A    between atoms: _1  and  _3
REMARK    2  A    between atoms: _3  and  _4
REMARK    3  A    between atoms: _3  and  _6
REMARK    4  A    between atoms: _6  and  _7
REMARK    5  A    between atoms: _7  and  _8
REMARK    6  A    between atoms: _12  and  _13
REMARK    7  A    between atoms: _18  and  _20
REMARK    8  A    between atoms: _20  and  _21
REMARK    9  A    between atoms: _20  and  _23
REMARK   10  A    between atoms: _26  and  _28
REMARK   11  A    between atoms: _28  and  _29
REMARK   12  A    between atoms: _28  and  _31
REMARK   13  A    between atoms: _31  and  _32
REMARK   14  A    between atoms: _35  and  _37
REMARK   15  A    between atoms: _37  and  _38
REMARK   16  A    between atoms: _37  and  _40
REMARK   17  A    between atoms: _40  and  _41
REMARK   18  A    between atoms: _46  and  _48
REMARK   19  A    between atoms: _48  and  _49
REMARK   20  A    between atoms: _48  and  _51
REMARK   21  A    between atoms: _51  and  _52
REMARK   22  A    between atoms: _55  and  _57
REMARK   23  A    between atoms: _57  and  _58
REMARK   24  A    between atoms: _57  and  _60
REMARK   25  A    between atoms: _62  and  _64
REMARK   26  A    between atoms: _64  and  _65
REMARK   27  A    between atoms: _64  and  _67
REMARK   28  A    between atoms: _67  and  _68
REMARK   29  A    between atoms: _68  and  _69
REMARK   30  A    between atoms: _74  and  _76
REMARK   31  A    between atoms: _76  and  _77
REMARK   32  A    between atoms: _80  and  _82
REMARK   33  A    between atoms: _82  and  _83
REMARK   34  A    between atoms: _86  and  _88
REMARK   35  A    between atoms: _88  and  _89
REMARK   36  A    between atoms: _88  and  _91
REMARK   37  A    between atoms: _91  and  _92
REMARK   38  A    between atoms: _95  and  _97
REMARK   39  A    between atoms: _97  and  _98
REMARK   40  A    between atoms: _97  and  _100
REMARK   41  A    between atoms: _100  and  _101
REMARK   42  A    between atoms: _101  and  _102
REMARK   43  A    between atoms: _102  and  _103
REMARK   44  A    between atoms: _103  and  _104
REMARK   45  A    between atoms: _108  and  _110
REMARK   46  A    between atoms: _110  and  _111
REMARK   47  A    between atoms: _110  and  _113
REMARK   48  A    between atoms: _113  and  _114
REMARK   49  A    between atoms: _114  and  _115
REMARK   50  A    between atoms: _120  and  _122
REMARK   51  A    between atoms: _122  and  _123
REMARK   52  A    between atoms: _122  and  _125
REMARK   53  A    between atoms: _125  and  _126
REMARK   54  A    between atoms: _129  and  _131
REMARK   55  A    between atoms: _131  and  _132
REMARK   56  A    between atoms: _131  and  _134
REMARK   57  A    between atoms: _134  and  _135
REMARK   58  A    between atoms: _138  and  _140
REMARK   59  A    between atoms: _140  and  _141
REMARK   60  A    between atoms: _140  and  _143
REMARK   61  A    between atoms: _143  and  _144
REMARK   62  A    between atoms: _154  and  _156
REMARK   63  A    between atoms: _156  and  _157
REMARK   64  A    between atoms: _156  and  _159
REMARK   65  A    between atoms: _159  and  _160
REMARK   66  A    between atoms: _165  and  _167
REMARK   67  A    between atoms: _167  and  _168
REMARK   68  A    between atoms: _167  and  _170
REMARK   69  A    between atoms: _170  and  _171
REMARK   70  A    between atoms: _171  and  _172
REMARK   71  A    between atoms: _175  and  _177
REMARK   72  A    between atoms: _177  and  _178
REMARK   73  A    between atoms: _177  and  _180
REMARK   74  A    between atoms: _180  and  _181
REMARK   75  A    between atoms: _184  and  _186
REMARK   76  A    between atoms: _186  and  _187
REMARK   77  A    between atoms: _186  and  _189
REMARK   78  A    between atoms: _189  and  _190
REMARK   79  A    between atoms: _193  and  _195
REMARK   80  A    between atoms: _195  and  _196
REMARK   81  A    between atoms: _195  and  _198
REMARK   82  A    between atoms: _198  and  _199
REMARK   83  A    between atoms: _202  and  _204
REMARK   84  A    between atoms: _204  and  _205
REMARK   85  A    between atoms: _208  and  _210
REMARK   86  A    between atoms: _210  and  _211
REMARK   87  A    between atoms: _210  and  _213
REMARK   88  A    between atoms: _213  and  _214
REMARK   89  A    between atoms: _216  and  _218
REMARK   90  A    between atoms: _218  and  _219
REMARK   91  A    between atoms: _218  and  _221
REMARK   92  A    between atoms: _221  and  _222
REMARK   93  A    between atoms: _228  and  _230
REMARK   94  A    between atoms: _230  and  _231
REMARK   95  A    between atoms: _230  and  _233
REMARK   96  A    between atoms: _233  and  _234
REMARK   97  A    between atoms: _236  and  _238
REMARK   98  A    between atoms: _238  and  _239
REMARK   99  A    between atoms: _238  and  _241
REMARK  100  A    between atoms: _241  and  _242
REMARK  101  A    between atoms: _242  and  _243
REMARK  102  A    between atoms: _243  and  _244
REMARK  103  A    between atoms: _253  and  _255
REMARK  104  A    between atoms: _255  and  _256
REMARK  105  A    between atoms: _255  and  _258
REMARK  106  A    between atoms: _258  and  _259
REMARK  107  A    between atoms: _261  and  _263
REMARK  108  A    between atoms: _263  and  _264
REMARK  109  A    between atoms: _263  and  _266
REMARK  110  A    between atoms: _266  and  _267
REMARK  111  A    between atoms: _270  and  _272
REMARK  112  A    between atoms: _272  and  _273
REMARK  113  A    between atoms: _272  and  _275
REMARK  114  A    between atoms: _275  and  _276
REMARK  115  A    between atoms: _279  and  _281
REMARK  116  A    between atoms: _281  and  _282
REMARK  117  A    between atoms: _281  and  _284
REMARK  118  A    between atoms: _284  and  _285
REMARK  119  A    between atoms: _288  and  _290
REMARK  120  A    between atoms: _290  and  _291
REMARK  121  A    between atoms: _294  and  _296
REMARK  122  A    between atoms: _296  and  _297
REMARK  123  A    between atoms: _296  and  _299
REMARK  124  A    between atoms: _299  and  _300
REMARK  125  A    between atoms: _303  and  _305
REMARK  126  A    between atoms: _305  and  _306
REMARK  127  A    between atoms: _308  and  _310
REMARK  128  A    between atoms: _310  and  _311
REMARK  129  A    between atoms: _310  and  _313
REMARK  130  A    between atoms: _313  and  _314
REMARK  131  A    between atoms: _317  and  _319
REMARK  132  A    between atoms: _319  and  _320
REMARK  133  A    between atoms: _319  and  _322
REMARK  134  A    between atoms: _325  and  _327
REMARK  135  A    between atoms: _327  and  _328
REMARK  136  A    between atoms: _327  and  _330
REMARK  137  A    between atoms: _330  and  _331
REMARK  138  A    between atoms: _336  and  _338
REMARK  139  A    between atoms: _338  and  _339
REMARK  140  A    between atoms: _338  and  _341
REMARK  141  A    between atoms: _341  and  _342
REMARK  142  A    between atoms: _342  and  _343
REMARK  143  A    between atoms: _343  and  _344
REMARK  144  A    between atoms: _353  and  _355
REMARK  145  A    between atoms: _355  and  _356
REMARK  146  A    between atoms: _359  and  _361
REMARK  147  A    between atoms: _361  and  _362
REMARK  148  A    between atoms: _361  and  _364
REMARK  149  A    between atoms: _364  and  _365
REMARK  150  A    between atoms: _370  and  _372
REMARK  151  A    between atoms: _372  and  _373
REMARK  152  A    between atoms: _376  and  _378
REMARK  153  A    between atoms: _378  and  _379
REMARK  154  A    between atoms: _381  and  _383
REMARK  155  A    between atoms: _383  and  _384
REMARK  156  A    between atoms: _383  and  _386
REMARK  157  A    between atoms: _389  and  _391
REMARK  158  A    between atoms: _391  and  _392
REMARK  159  A    between atoms: _394  and  _396
REMARK  160  A    between atoms: _396  and  _397
REMARK  161  A    between atoms: _400  and  _402
REMARK  162  A    between atoms: _402  and  _403
REMARK  163  A    between atoms: _402  and  _405
REMARK  164  A    between atoms: _405  and  _406
REMARK  165  A    between atoms: _409  and  _411
REMARK  166  A    between atoms: _411  and  _412
REMARK  167  A    between atoms: _411  and  _414
REMARK  168  A    between atoms: _414  and  _415
REMARK  169  A    between atoms: _421  and  _423
REMARK  170  A    between atoms: _423  and  _424
REMARK  171  A    between atoms: _423  and  _426
REMARK  172  A    between atoms: _426  and  _427
REMARK  173  A    between atoms: _430  and  _432
REMARK  174  A    between atoms: _432  and  _433
REMARK  175  A    between atoms: _432  and  _435
REMARK  176  A    between atoms: _435  and  _436
REMARK  177  A    between atoms: _436  and  _437
REMARK  178  A    between atoms: _437  and  _438
REMARK  179  A    between atoms: _447  and  _449
REMARK  180  A    between atoms: _449  and  _450
REMARK  181  A    between atoms: _449  and  _452
REMARK  182  A    between atoms: _455  and  _457
REMARK  183  A    between atoms: _457  and  _458
REMARK  184  A    between atoms: _457  and  _460
REMARK  185  A    between atoms: _460  and  _461
REMARK  186  A    between atoms: _464  and  _466
REMARK  187  A    between atoms: _466  and  _467
REMARK  188  A    between atoms: _466  and  _469
REMARK  189  A    between atoms: _469  and  _470
REMARK  190  A    between atoms: _470  and  _471
REMARK  191  A    between atoms: _471  and  _472
REMARK  192  A    between atoms: _481  and  _483
REMARK  193  A    between atoms: _483  and  _484
REMARK  194  A    between atoms: _483  and  _486
REMARK  195  A    between atoms: _486  and  _487
REMARK  196  A    between atoms: _490  and  _492
REMARK  197  A    between atoms: _492  and  _493
REMARK  198  A    between atoms: _495  and  _497
REMARK  199  A    between atoms: _497  and  _498
REMARK  200  A    between atoms: _497  and  _500
REMARK  201  A    between atoms: _500  and  _501
REMARK  202  A    between atoms: _504  and  _506
REMARK  203  A    between atoms: _506  and  _507
REMARK  204  A    between atoms: _506  and  _509
REMARK  205  A    between atoms: _509  and  _510
REMARK  206  A    between atoms: _510  and  _511
REMARK  207  A    between atoms: _511  and  _512
REMARK  208  A    between atoms: _512  and  _513
REMARK  209  A    between atoms: _517  and  _519
REMARK  210  A    between atoms: _519  and  _520
REMARK  211  A    between atoms: _519  and  _522
REMARK  212  A    between atoms: _524  and  _526
REMARK  213  A    between atoms: _526  and  _527
REMARK  214  A    between atoms: _526  and  _529
REMARK  215  A    between atoms: _529  and  _530
REMARK  216  A    between atoms: _533  and  _535
REMARK  217  A    between atoms: _535  and  _536
REMARK  218  A    between atoms: _535  and  _538
REMARK  219  A    between atoms: _538  and  _539
REMARK  220  A    between atoms: _539  and  _540
REMARK  221  A    between atoms: _543  and  _545
REMARK  222  A    between atoms: _545  and  _546
REMARK  223  A    between atoms: _545  and  _548
REMARK  224  A    between atoms: _548  and  _549
REMARK  225  A    between atoms: _554  and  _556
REMARK  226  A    between atoms: _556  and  _557
REMARK  227  A    between atoms: _556  and  _559
REMARK  228  A    between atoms: _559  and  _560
REMARK  229  A    between atoms: _563  and  _565
REMARK  230  A    between atoms: _565  and  _566
REMARK  231  A    between atoms: _565  and  _568
REMARK  232  A    between atoms: _568  and  _569
REMARK  233  A    between atoms: _575  and  _577
REMARK  234  A    between atoms: _577  and  _578
REMARK  235  A    between atoms: _577  and  _580
REMARK  236  A    between atoms: _580  and  _581
REMARK  237  A    between atoms: _587  and  _589
REMARK  238  A    between atoms: _589  and  _590
REMARK  239  A    between atoms: _589  and  _592
REMARK  240  A    between atoms: _592  and  _593
REMARK  241  A    between atoms: _596  and  _598
REMARK  242  A    between atoms: _598  and  _599
REMARK  243  A    between atoms: _598  and  _601
REMARK  244  A    between atoms: _601  and  _602
REMARK  245  A    between atoms: _605  and  _607
REMARK  246  A    between atoms: _607  and  _608
REMARK  247  A    between atoms: _607  and  _610
REMARK  248  A    between atoms: _610  and  _611
REMARK                            x       y       z     vdW  Elec       q    Type
REMARK                         _______ _______ _______ _____ _____    ______ ____
ROOT
ATOM      1  CA  GLU A   1      47.072  49.120  26.996  0.00  0.00    +0.134 C 
ENDROOT
BRANCH   1   2
ATOM      2  N   GLU A   1      46.913  49.594  25.630  0.00  0.00    -0.239 NA
ATOM      3  H   GLU A   1      46.158  50.271  25.397  0.00  0.00    +0.142 HD
ENDBRANCH   1   2
BRANCH   1   4
ATOM      4  C   GLU A   1      45.818  49.346  27.830  0.00  0.00    +0.224 C 
ATOM      5  O   GLU A   1      45.297  50.459  27.895  0.00  0.00    -0.287 OA
ENDBRANCH   1   4
BRANCH   1   6
ATOM      6  CB  GLU A   1      48.264  49.811  27.645  0.00  0.00    +0.037 C 
BRANCH   6   7
ATOM      7  CG  GLU A   1      48.781  49.113  28.886  0.00  0.00    +0.116 C 
BRANCH   7   8
ATOM      8  CD  GLU A   1      50.063  49.725  29.387  0.00  0.00    +0.365 C 
ATOM      9  OE2 GLU A   1      50.088  50.184  30.549  0.00  0.00    -0.246 OA
ATOM     10  OE1 GLU A   1      51.046  49.748  28.617  0.00  0.00    -0.246 OA
ENDBRANCH   7   8
ENDBRANCH   6   7
ENDBRANCH   1   6
TORSDOF 5
REMARK  Name = ../refined-set-2016/4pp3/4pp3_pocket.pdb
REMARK  248 active torsions:
REMARK  status: ('A' for Active; 'I' for Inactive)
REMARK    1  A    between atoms: _1  and  _3
REMARK    2  A    between atoms: _3  and  _4
REMARK    3  A    between atoms: _3  and  _6
REMARK    4  A    between atoms: _6  and  _7
REMARK    5  A    between atoms: _7  and  _8
REMARK    6  A    between atoms: _12  and  _13
REMARK    7  A    between atoms: _18  and  _20
REMARK    8  A    between atoms: _20  and  _21
REMARK    9  A    between atoms: _20  and  _23
REMARK   10  A    between atoms: _26  and  _28
REMARK   11  A    between atoms: _28  and  _29
REMARK   12  A    between atoms: _28  and  _31
REMARK   13  A    between atoms: _31  and  _32
REMARK   14  A    between atoms: _35  and  _37
REMARK   15  A    between atoms: _37  and  _38
REMARK   16  A    between atoms: _37  and  _40
REMARK   17  A    between atoms: _40  and  _41
REMARK   18  A    between atoms: _46  and  _48
REMARK   19  A    between atoms: _48  and  _49
REMARK   20  A    between atoms: _48  and  _51
REMARK   21  A    between atoms: _51  and  _52
REMARK   22  A    between atoms: _55  and  _57
REMARK   23  A    between atoms: _57  and  _58
REMARK   24  A    between atoms: _57  and  _60
REMARK   25  A    between atoms: _62  and  _64
REMARK   26  A    between atoms: _64  and  _65
REMARK   27  A    between atoms: _64  and  _67
REMARK   28  A    between atoms: _67  and  _68
REMARK   29  A    between atoms: _68  and  _69
REMARK   30  A    between atoms: _74  and  _76
REMARK   31  A    between atoms: _76  and  _77
REMARK   32  A    between atoms: _80  and  _82
REMARK   33  A    between atoms: _82  and  _83
REMARK   34  A    between atoms: _86  and  _88
REMARK   35  A    between atoms: _88  and  _89
REMARK   36  A    between atoms: _88  and  _91
REMARK   37  A    between atoms: _91  and  _92
REMARK   38  A    between atoms: _95  and  _97
REMARK   39  A    between atoms: _97  and  _98
REMARK   40  A    between atoms: _97  and  _100
REMARK   41  A    between atoms: _100  and  _101
REMARK   42  A    between atoms: _101  and  _102
REMARK   43  A    between atoms: _102  and  _103
REMARK   44  A    between atoms: _103  and  _104
REMARK   45  A    between atoms: _108  and  _110
REMARK   46  A    between atoms: _110  and  _111
REMARK   47  A    between atoms: _110  and  _113
REMARK   48  A    between atoms: _113  and  _114
REMARK   49  A    between atoms: _114  and  _115
REMARK   50  A    between atoms: _120  and  _122
REMARK   51  A    between atoms: _122  and  _123
REMARK   52  A    between atoms: _122  and  _125
REMARK   53  A    between atoms: _125  and  _126
REMARK   54  A    between atoms: _129  and  _131
REMARK   55  A    between atoms: _131  and  _132
REMARK   56  A    between atoms: _131  and  _134
REMARK   57  A    between atoms: _134  and  _135
REMARK   58  A    between atoms: _138  and  _140
REMARK   59  A    between atoms: _140  and  _141
REMARK   60  A    between atoms: _140  and  _143
REMARK   61  A    between atoms: _143  and  _144
REMARK   62  A    between atoms: _154  and  _156
REMARK   63  A    between atoms: _156  and  _157
REMARK   64  A    between atoms: _156  and  _159
REMARK   65  A    between atoms: _159  and  _160
REMARK   66  A    between atoms: _165  and  _167
REMARK   67  A    between atoms: _167  and  _168
REMARK   68  A    between atoms: _167  and  _170
REMARK   69  A    between atoms: _170  and  _171
REMARK   70  A    between atoms: _171  and  _172
REMARK   71  A    between atoms: _175  and  _177
REMARK   72  A    between atoms: _177  and  _178
REMARK   73  A    between atoms: _177  and  _180
REMARK   74  A    between atoms: _180  and  _181
REMARK   75  A    between atoms: _184  and  _186
REMARK   76  A    between atoms: _186  and  _187
REMARK   77  A    between atoms: _186  and  _189
REMARK   78  A    between atoms: _189  and  _190
REMARK   79  A    between atoms: _193  and  _195
REMARK   80  A    between atoms: _195  and  _196
REMARK   81  A    between atoms: _195  and  _198
REMARK   82  A    between atoms: _198  and  _199
REMARK   83  A    between atoms: _202  and  _204
REMARK   84  A    between atoms: _204  and  _205
REMARK   85  A    between atoms: _208  and  _210
REMARK   86  A    between atoms: _210  and  _211
REMARK   87  A    between atoms: _210  and  _213
REMARK   88  A    between atoms: _213  and  _214
REMARK   89  A    between atoms: _216  and  _218
REMARK   90  A    between atoms: _218  and  _219
REMARK   91  A    between atoms: _218  and  _221
REMARK   92  A    between atoms: _221  and  _222
REMARK   93  A    between atoms: _228  and  _230
REMARK   94  A    between atoms: _230  and  _231
REMARK   95  A    between atoms: _230  and  _233
REMARK   96  A    between atoms: _233  and  _234
REMARK   97  A    between atoms: _236  and  _238
REMARK   98  A    between atoms: _238  and  _239
REMARK   99  A    between atoms: _238  and  _241
REMARK  100  A    between atoms: _241  and  _242
REMARK  101  A    between atoms: _242  and  _243
REMARK  102  A    between atoms: _243  and  _244
REMARK  103  A    between atoms: _253  and  _255
REMARK  104  A    between atoms: _255  and  _256
REMARK  105  A    between atoms: _255  and  _258
REMARK  106  A    between atoms: _258  and  _259
REMARK  107  A    between atoms: _261  and  _263
REMARK  108  A    between atoms: _263  and  _264
REMARK  109  A    between atoms: _263  and  _266
REMARK  110  A    between atoms: _266  and  _267
REMARK  111  A    between atoms: _270  and  _272
REMARK  112  A    between atoms: _272  and  _273
REMARK  113  A    between atoms: _272  and  _275
REMARK  114  A    between atoms: _275  and  _276
REMARK  115  A    between atoms: _279  and  _281
REMARK  116  A    between atoms: _281  and  _282
REMARK  117  A    between atoms: _281  and  _284
REMARK  118  A    between atoms: _284  and  _285
REMARK  119  A    between atoms: _288  and  _290
REMARK  120  A    between atoms: _290  and  _291
REMARK  121  A    between atoms: _294  and  _296
REMARK  122  A    between atoms: _296  and  _297
REMARK  123  A    between atoms: _296  and  _299
REMARK  124  A    between atoms: _299  and  _300
REMARK  125  A    between atoms: _303  and  _305
REMARK  126  A    between atoms: _305  and  _306
REMARK  127  A    between atoms: _308  and  _310
REMARK  128  A    between atoms: _310  and  _311
REMARK  129  A    between atoms: _310  and  _313
REMARK  130  A    between atoms: _313  and  _314
REMARK  131  A    between atoms: _317  and  _319
REMARK  132  A    between atoms: _319  and  _320
REMARK  133  A    between atoms: _319  and  _322
REMARK  134  A    between atoms: _325  and  _327
REMARK  135  A    between atoms: _327  and  _328
REMARK  136  A    between atoms: _327  and  _330
REMARK  137  A    between atoms: _330  and  _331
REMARK  138  A    between atoms: _336  and  _338
REMARK  139  A    between atoms: _338  and  _339
REMARK  140  A    between atoms: _338  and  _341
REMARK  141  A    between atoms: _341  and  _342
REMARK  142  A    between atoms: _342  and  _343
REMARK  143  A    between atoms: _343  and  _344
REMARK  144  A    between atoms: _353  and  _355
REMARK  145  A    between atoms: _355  and  _356
REMARK  146  A    between atoms: _359  and  _361
REMARK  147  A    between atoms: _361  and  _362
REMARK  148  A    between atoms: _361  and  _364
REMARK  149  A    between atoms: _364  and  _365
REMARK  150  A    between atoms: _370  and  _372
REMARK  151  A    between atoms: _372  and  _373
REMARK  152  A    between atoms: _376  and  _378
REMARK  153  A    between atoms: _378  and  _379
REMARK  154  A    between atoms: _381  and  _383
REMARK  155  A    between atoms: _383  and  _384
REMARK  156  A    between atoms: _383  and  _386
REMARK  157  A    between atoms: _389  and  _391
REMARK  158  A    between atoms: _391  and  _392
REMARK  159  A    between atoms: _394  and  _396
REMARK  160  A    between atoms: _396  and  _397
REMARK  161  A    between atoms: _400  and  _402
REMARK  162  A    between atoms: _402  and  _403
REMARK  163  A    between atoms: _402  and  _405
REMARK  164  A    between atoms: _405  and  _406
REMARK  165  A    between atoms: _409  and  _411
REMARK  166  A    between atoms: _411  and  _412
REMARK  167  A    between atoms: _411  and  _414
REMARK  168  A    between atoms: _414  and  _415
REMARK  169  A    between atoms: _421  and  _423
REMARK  170  A    between atoms: _423  and  _424
REMARK  171  A    between atoms: _423  and  _426
REMARK  172  A    between atoms: _426  and  _427
REMARK  173  A    between atoms: _430  and  _432
REMARK  174  A    between atoms: _432  and  _433
REMARK  175  A    between atoms: _432  and  _435
REMARK  176  A    between atoms: _435  and  _436
REMARK  177  A    between atoms: _436  and  _437
REMARK  178  A    between atoms: _437  and  _438
REMARK  179  A    between atoms: _447  and  _449
REMARK  180  A    between atoms: _449  and  _450
REMARK  181  A    between atoms: _449  and  _452
REMARK  182  A    between atoms: _455  and  _457
REMARK  183  A    between atoms: _457  and  _458
REMARK  184  A    between atoms: _457  and  _460
REMARK  185  A    between atoms: _460  and  _461
REMARK  186  A    between atoms: _464  and  _466
REMARK  187  A    between atoms: _466  and  _467
REMARK  188  A    between atoms: _466  and  _469
REMARK  189  A    between atoms: _469  and  _470
REMARK  190  A    between atoms: _470  and  _471
REMARK  191  A    between atoms: _471  and  _472
REMARK  192  A    between atoms: _481  and  _483
REMARK  193  A    between atoms: _483  and  _484
REMARK  194  A    between atoms: _483  and  _486
REMARK  195  A    between atoms: _486  and  _487
REMARK  196  A    between atoms: _490  and  _492
REMARK  197  A    between atoms: _492  and  _493
REMARK  198  A    between atoms: _495  and  _497
REMARK  199  A    between atoms: _497  and  _498
REMARK  200  A    between atoms: _497  and  _500
REMARK  201  A    between atoms: _500  and  _501
REMARK  202  A    between atoms: _504  and  _506
REMARK  203  A    between atoms: _506  and  _507
REMARK  204  A    between atoms: _506  and  _509
REMARK  205  A    between atoms: _509  and  _510
REMARK  206  A    between atoms: _510  and  _511
REMARK  207  A    between atoms: _511  and  _512
REMARK  208  A    between atoms: _512  and  _513
REMARK  209  A    between atoms: _517  and  _519
REMARK  210  A    between atoms: _519  and  _520
REMARK  211  A    between atoms: _519  and  _522
REMARK  212  A    between atoms: _524  and  _526
REMARK  213  A    between atoms: _526  and  _527
REMARK  214  A    between atoms: _526  and  _529
REMARK  215  A    between atoms: _529  and  _530
REMARK  216  A    between atoms: _533  and  _535
REMARK  217  A    between atoms: _535  and  _536
REMARK  218  A    between atoms: _535  and  _538
REMARK  219  A    between atoms: _538  and  _539
REMARK  220  A    between atoms: _539  and  _540
REMARK  221  A    between atoms: _543  and  _545
REMARK  222  A    between atoms: _545  and  _546
REMARK  223  A    between atoms: _545  and  _548
REMARK  224  A    between atoms: _548  and  _549
REMARK  225  A    between atoms: _554  and  _556
REMARK  226  A    between atoms: _556  and  _557
REMARK  227  A    between atoms: _556  and  _559
REMARK  228  A    between atoms: _559  and  _560
REMARK  229  A    between atoms: _563  and  _565
REMARK  230  A    between atoms: _565  and  _566
REMARK  231  A    between atoms: _565  and  _568
REMARK  232  A    between atoms: _568  and  _569
REMARK  233  A    between atoms: _575  and  _577
REMARK  234  A    between atoms: _577  and  _578
REMARK  235  A    between atoms: _577  and  _580
REMARK  236  A    between atoms: _580  and  _581
REMARK  237  A    between atoms: _587  and  _589
REMARK  238  A    between atoms: _589  and  _590
REMARK  239  A    between atoms: _589  and  _592
REMARK  240  A    between atoms: _592  and  _593
REMARK  241  A    between atoms: _596  and  _598
REMARK  242  A    between atoms: _598  and  _599
REMARK  243  A    between atoms: _598  and  _601
REMARK  244  A    between atoms: _601  and  _602
REMARK  245  A    between atoms: _605  and  _607
REMARK  246  A    between atoms: _607  and  _608
REMARK  247  A    between atoms: _607  and  _610
REMARK  248  A    between atoms: _610  and  _611
REMARK                            x       y       z     vdW  Elec       q    Type
REMARK                         _______ _______ _______ _____ _____    ______ ____
ROOT
ATOM      1  CA  GLN A   7      60.582  39.208  27.450  0.00  0.00    +0.149 C 
ENDROOT
BRANCH   1   2
ATOM      2  C   GLN A   7      59.473  40.249  27.323  0.00  0.00    +0.241 C 
ATOM      3  N   ALA A   8      59.313  41.059  28.364  0.00  0.00    -0.297 N 
ATOM      4  H   ALA A   8      59.923  40.941  29.198  0.00  0.00    +0.150 HD
ATOM      5  O   GLN A   7      58.785  40.326  26.305  0.00  0.00    -0.273 OA
BRANCH   3   6
ATOM      6  CA  ALA A   8      58.302  42.109  28.364  0.00  0.00    +0.149 C 
ATOM      7  CB  ALA A   8      58.227  42.772  29.737  0.00  0.00    +0.031 C 
BRANCH   6   8
ATOM      8  C   ALA A   8      58.631  43.154  27.298  0.00  0.00    +0.241 C 
ATOM      9  N   ALA A   9      59.914  43.498  27.155  0.00  0.00    -0.297 N 
ATOM     10  H   ALA A   9      60.635  43.053  27.758  0.00  0.00    +0.150 HD
ATOM     11  O   ALA A   8      57.730  43.644  26.607  0.00  0.00    -0.273 OA
BRANCH   9  12
ATOM     12  CA  ALA A   9      60.317  44.489  26.164  0.00  0.00    +0.149 C 
ATOM     13  CB  ALA A   9      61.823  44.795  26.277  0.00  0.00    +0.031 C 
BRANCH  12  14
ATOM     14  C   ALA A   9      60.002  43.980  24.762  0.00  0.00    +0.241 C 
ATOM     15  N   ASP A  10      60.326  42.713  24.495  0.00  0.00    -0.297 N 
ATOM     16  H   ASP A  10      60.756  42.133  25.244  0.00  0.00    +0.150 HD
ATOM     17  O   ALA A   9      59.476  44.725  23.943  0.00  0.00    -0.273 OA
BRANCH  15  18
ATOM     18  CA  ASP A  10      60.093  42.116  23.177  0.00  0.00    +0.160 C 
BRANCH  18  19
ATOM     19  C   ASP A  10      58.590  42.162  22.873  0.00  0.00    +0.241 C 
ATOM     20  N   LYS A  11      57.784  41.698  23.770  0.00  0.00    -0.297 N 
ATOM     21  H   LYS A  11      58.222  41.205  24.574  0.00  0.00    +0.150 HD
ATOM     22  O   ASP A  10      58.174  42.536  21.776  0.00  0.00    -0.273 OA
BRANCH  20  23
ATOM     23  CA  LYS A  11      56.391  41.784  23.780  0.00  0.00    +0.149 C 
BRANCH  23  24
ATOM     24  C   LYS A  11      55.821  43.244  23.402  0.00  0.00    +0.241 C 
ATOM     25  N   GLN A  12      56.325  44.187  24.114  0.00  0.00    -0.297 N 
ATOM     26  H   GLN A  12      57.035  43.980  24.845  0.00  0.00    +0.150 HD
ATOM     27  O   LYS A  11      55.035  43.446  22.507  0.00  0.00    -0.273 OA
BRANCH  25  28
ATOM     28  CA  GLN A  12      55.879  45.552  23.874  0.00  0.00    +0.149 C 
BRANCH  28  29
ATOM     29  C   GLN A  12      56.365  46.147  22.562  0.00  0.00    +0.241 C 
ATOM     30  O   GLN A  12      55.780  47.103  22.066  0.00  0.00    -0.273 OA
ATOM     31  N   LEU A  13      57.421  45.589  21.989  0.00  0.00    -0.298 N 
ATOM     32  H   LEU A  13      57.901  44.786  22.443  0.00  0.00    +0.150 HD
BRANCH  31  33
ATOM     33  CA  LEU A  13      57.903  46.107  20.723  0.00  0.00    +0.137 C 
BRANCH  33  34
ATOM     34  C   LEU A  13      56.826  45.952  19.649  0.00  0.00    +0.227 C 
ATOM     35  O   LEU A  13      56.636  46.834  18.799  0.00  0.00    -0.286 OA
ENDBRANCH  33  34
BRANCH  33  36
ATOM     36  CB  LEU A  13      59.201  45.397  20.311  0.00  0.00    +0.028 C 
BRANCH  36  37
ATOM     37  CG  LEU A  13      60.459  45.946  21.005  0.00  0.00    +0.002 C 
ATOM     38  CD2 LEU A  13      61.679  45.121  20.623  0.00  0.00    +0.000 C 
ATOM     39  CD1 LEU A  13      60.652  47.404  20.598  0.00  0.00    +0.000 C 
ENDBRANCH  36  37
ENDBRANCH  33  36
ENDBRANCH  31  33
ENDBRANCH  28  29
BRANCH  28  40
ATOM     40  CB  GLN A  12      56.255  46.444  25.065  0.00  0.00    +0.039 C 
BRANCH  40  41
ATOM     41  CG  GLN A  12      55.504  46.100  26.345  0.00  0.00    +0.087 C 
BRANCH  41  42
ATOM     42  CD  GLN A  12      54.016  45.881  26.120  0.00  0.00    +0.219 C 
ATOM     43  NE2 GLN A  12      53.243  46.962  26.167  0.00  0.00    -0.329 N 
ATOM     44 HE21 GLN A  12      53.662  47.892  26.368  0.00  0.00    +0.145 HD
ATOM     45 HE22 GLN A  12      52.220  46.877  26.003  0.00  0.00    +0.145 HD
ATOM     46  OE1 GLN A  12      53.570  44.756  25.886  0.00  0.00    -0.275 OA
ENDBRANCH  41  42
ENDBRANCH  40  41
ENDBRANCH  28  40
ENDBRANCH  25  28
ENDBRANCH  23  24
BRANCH  23  47
ATOM     47  CB  LYS A  11      55.786  41.324  25.053  0.00  0.00    +0.029 C 
BRANCH  47  48
ATOM     48  CG  LYS A  11      54.335  41.582  25.159  0.00  0.00    +0.000 C 
BRANCH  48  49
ATOM     49  CD  LYS A  11      53.703  41.023  26.271  0.00  0.00    -0.024 C 
BRANCH  49  50
ATOM     50  CE  LYS A  11      52.887  41.884  27.075  0.00  0.00    -0.086 C 
BRANCH  50  51
ATOM     51  NZ  LYS A  11      51.589  41.643  27.056  0.00  0.00    +0.380 N 
ATOM     52  HZ1 LYS A  11      51.102  42.325  27.672  0.00  0.00    -0.089 HD
ATOM     53  HZ2 LYS A  11      51.412  40.677  27.399  0.00  0.00    -0.089 HD
ATOM     54  HZ3 LYS A  11      51.234  41.737  26.083  0.00  0.00    -0.089 HD
ENDBRANCH  50  51
ENDBRANCH  49  50
ENDBRANCH  48  49
ENDBRANCH  47  48
ENDBRANCH  23  47
ENDBRANCH  20  23
ENDBRANCH  18  19
BRANCH  18  55
ATOM     55  CB  ASP A  10      60.582  40.663  23.167  0.00  0.00    +0.143 C 
BRANCH  55  56
ATOM     56  CG  ASP A  10      60.492  40.025  21.789  0.00  0.00    +0.367 C 
ATOM     57  OD2 ASP A  10      59.521  39.277  21.549  0.00  0.00    -0.246 OA
ATOM     58  OD1 ASP A  10      61.376  40.270  20.935  0.00  0.00    -0.246 OA
ENDBRANCH  55  56
ENDBRANCH  18  55
ENDBRANCH  15  18
ENDBRANCH  12  14
ENDBRANCH   9  12
ENDBRANCH   6   8
ENDBRANCH   3   6
ENDBRANCH   1   2
BRANCH   1  60
ATOM     59  C   CYS A   6      62.424  40.755  27.502  0.00  0.00    +0.242 C 
ATOM     60  N   GLN A   7      61.741  39.799  28.111  0.00  0.00    -0.297 N 
ATOM     61  H   GLN A   7      62.029  39.471  29.055  0.00  0.00    +0.150 HD
ATOM     62  O   CYS A   6      62.106  41.164  26.377  0.00  0.00    -0.273 OA
BRANCH  59  63
ATOM     63  CA  CYS A   6      63.615  41.343  28.249  0.00  0.00    +0.160 C 
BRANCH  63  65
ATOM     64  C   ILE A   5      62.403  42.333  30.090  0.00  0.00    +0.241 C 
ATOM     65  N   CYS A   6      63.338  41.493  29.665  0.00  0.00    -0.296 N 
ATOM     66  H   CYS A   6      63.879  40.935  30.356  0.00  0.00    +0.150 HD
ATOM     67  O   ILE A   5      61.747  43.021  29.317  0.00  0.00    -0.273 OA
BRANCH  64  68
ATOM     68  CA  ILE A   5      62.177  42.422  31.605  0.00  0.00    +0.149 C 
BRANCH  68  70
ATOM     69  C   ASN A   4      61.231  40.195  31.898  0.00  0.00    +0.241 C 
ATOM     70  N   ILE A   5      62.173  41.086  32.187  0.00  0.00    -0.297 N 
ATOM     71  H   ILE A   5      62.931  40.822  32.849  0.00  0.00    +0.150 HD
ATOM     72  O   ASN A   4      60.291  40.445  31.143  0.00  0.00    -0.273 OA
BRANCH  69  73
ATOM     73  CA  ASN A   4      61.364  38.828  32.560  0.00  0.00    +0.158 C 
BRANCH  73  75
ATOM     74  C   THR A   3      63.477  38.205  31.518  0.00  0.00    +0.243 C 
ATOM     75  N   ASN A   4      62.768  38.417  32.628  0.00  0.00    -0.297 N 
ATOM     76  H   ASN A   4      63.219  38.288  33.556  0.00  0.00    +0.150 HD
ATOM     77  O   THR A   3      63.004  38.342  30.391  0.00  0.00    -0.273 OA
BRANCH  74  78
ATOM     78  CA  THR A   3      64.935  37.788  31.693  0.00  0.00    +0.176 C 
BRANCH  78  80
ATOM     79  C   VAL A   2      65.624  39.885  32.686  0.00  0.00    +0.241 C 
ATOM     80  N   THR A   3      65.556  38.562  32.769  0.00  0.00    -0.295 N 
ATOM     81  H   THR A   3      65.945  38.074  33.601  0.00  0.00    +0.150 HD
ATOM     82  O   VAL A   2      65.187  40.511  31.714  0.00  0.00    -0.273 OA
BRANCH  79  83
ATOM     83  CA  VAL A   2      66.273  40.607  33.857  0.00  0.00    +0.148 C 
BRANCH  83  85
ATOM     84  C   PRO A   1      64.445  40.190  35.389  0.00  0.00    +0.239 C 
ATOM     85  N   VAL A   2      65.738  40.090  35.103  0.00  0.00    -0.297 N 
ATOM     86  H   VAL A   2      66.378  39.633  35.784  0.00  0.00    +0.150 HD
ATOM     87  O   PRO A   1      63.633  40.729  34.642  0.00  0.00    -0.274 OA
BRANCH  84  92
ATOM     88  N   PRO A   1      64.810  38.476  37.168  0.00  0.00    -0.210 NA
ATOM     89  CD  PRO A   1      65.474  38.794  38.445  0.00  0.00    +0.089 C 
ATOM     90  CG  PRO A   1      65.459  40.304  38.432  0.00  0.00    +0.021 C 
ATOM     91  CB  PRO A   1      64.114  40.600  37.870  0.00  0.00    +0.028 C 
ATOM     92  CA  PRO A   1      63.993  39.605  36.718  0.00  0.00    +0.149 C 
ENDBRANCH  84  92
ENDBRANCH  83  85
BRANCH  83  93
ATOM     93  CB  VAL A   2      67.791  40.410  33.769  0.00  0.00    +0.027 C 
ATOM     94  CG2 VAL A   2      68.490  41.298  34.798  0.00  0.00    +0.002 C 
ATOM     95  CG1 VAL A   2      68.270  40.737  32.373  0.00  0.00    +0.002 C 
ENDBRANCH  83  93
ENDBRANCH  79  83
ENDBRANCH  78  80
BRANCH  78  96
ATOM     96  CB  THR A   3      64.995  36.276  31.992  0.00  0.00    +0.137 C 
ATOM     97  CG2 THR A   3      64.359  35.484  30.850  0.00  0.00    +0.034 C 
BRANCH  96  98
ATOM     98  OG1 THR A   3      66.365  35.871  32.132  0.00  0.00    -0.382 OA
ATOM     99  HG1 THR A   3      66.782  36.372  32.877  0.00  0.00    +0.210 HD
ENDBRANCH  96  98
ENDBRANCH  78  96
ENDBRANCH  74  78
ENDBRANCH  73  75
BRANCH  73 100
ATOM    100  CB  ASN A   4      60.742  38.873  33.957  0.00  0.00    +0.114 C 
BRANCH 100 101
ATOM    101  CG  ASN A   4      60.546  37.491  34.557  0.00  0.00    +0.222 C 
ATOM    102  ND2 ASN A   4      60.759  37.376  35.863  0.00  0.00    -0.329 N 
ATOM    103 HD21 ASN A   4      61.065  38.203  36.415  0.00  0.00    +0.145 HD
ATOM    104 HD22 ASN A   4      60.620  36.459  36.334  0.00  0.00    +0.145 HD
ATOM    105  OD1 ASN A   4      60.184  36.546  33.857  0.00  0.00    -0.275 OA
ENDBRANCH 100 101
ENDBRANCH  73 100
ENDBRANCH  69  73
ENDBRANCH  68  70
BRANCH  68 106
ATOM    106  CB  ILE A   5      63.268  43.304  32.261  0.00  0.00    +0.027 C 
ATOM    107  CG2 ILE A   5      63.409  44.617  31.499  0.00  0.00    +0.002 C 
BRANCH 106 108
ATOM    108  CG1 ILE A   5      62.919  43.533  33.737  0.00  0.00    +0.002 C 
ATOM    109  CD1 ILE A   5      64.045  44.141  34.581  0.00  0.00    +0.000 C 
ENDBRANCH 106 108
ENDBRANCH  68 106
ENDBRANCH  64  68
ENDBRANCH  63  65
BRANCH  63 110
ATOM    110  CB  CYS A   6      64.877  40.498  28.059  0.00  0.00    +0.098 C 
ATOM    111  SG  CYS A   6      66.324  41.236  28.831  0.00  0.00    -0.080 S 
ENDBRANCH  63 110
ENDBRANCH  59  63
ENDBRANCH   1  60
BRANCH   1 112
ATOM    112  CB  GLN A   7      60.103  38.001  28.245  0.00  0.00    +0.039 C 
BRANCH 112 113
ATOM    113  CG  GLN A   7      61.134  36.880  28.286  0.00  0.00    +0.087 C 
BRANCH 113 114
ATOM    114  CD  GLN A   7      60.684  35.761  29.192  0.00  0.00    +0.219 C 
ATOM    115  OE1 GLN A   7      60.250  36.004  30.321  0.00  0.00    -0.275 OA
ATOM    116  NE2 GLN A   7      60.809  34.527  28.722  0.00  0.00    -0.329 N 
ATOM    117 HE21 GLN A   7      60.536  33.716  29.312  0.00  0.00    +0.145 HD
ATOM    118 HE22 GLN A   7      61.180  34.371  27.763  0.00  0.00    +0.145 HD
ENDBRANCH 113 114
ENDBRANCH 112 113
ENDBRANCH   1 112
TORSDOF 48
REMARK  Name = ../refined-set-2016/4pp3/4pp3_pocket.pdb
REMARK  248 active torsions:
REMARK  status: ('A' for Active; 'I' for Inactive)
REMARK    1  A    between atoms: _1  and  _3
REMARK    2  A    between atoms: _3  and  _4
REMARK    3  A    between atoms: _3  and  _6
REMARK    4  A    between atoms: _6  and  _7
REMARK    5  A    between atoms: _7  and  _8
REMARK    6  A    between atoms: _12  and  _13
REMARK    7  A    between atoms: _18  and  _20
REMARK    8  A    between atoms: _20  and  _21
REMARK    9  A    between atoms: _20  and  _23
REMARK   10  A    between atoms: _26  and  _28
REMARK   11  A    between atoms: _28  and  _29
REMARK   12  A    between atoms: _28  and  _31
REMARK   13  A    between atoms: _31  and  _32
REMARK   14  A    between atoms: _35  and  _37
REMARK   15  A    between atoms: _37  and  _38
REMARK   16  A    between atoms: _37  and  _40
REMARK   17  A    between atoms: _40  and  _41
REMARK   18  A    between atoms: _46  and  _48
REMARK   19  A    between atoms: _48  and  _49
REMARK   20  A    between atoms: _48  and  _51
REMARK   21  A    between atoms: _51  and  _52
REMARK   22  A    between atoms: _55  and  _57
REMARK   23  A    between atoms: _57  and  _58
REMARK   24  A    between atoms: _57  and  _60
REMARK   25  A    between atoms: _62  and  _64
REMARK   26  A    between atoms: _64  and  _65
REMARK   27  A    between atoms: _64  and  _67
REMARK   28  A    between atoms: _67  and  _68
REMARK   29  A    between atoms: _68  and  _69
REMARK   30  A    between atoms: _74  and  _76
REMARK   31  A    between atoms: _76  and  _77
REMARK   32  A    between atoms: _80  and  _82
REMARK   33  A    between atoms: _82  and  _83
REMARK   34  A    between atoms: _86  and  _88
REMARK   35  A    between atoms: _88  and  _89
REMARK   36  A    between atoms: _88  and  _91
REMARK   37  A    between atoms: _91  and  _92
REMARK   38  A    between atoms: _95  and  _97
REMARK   39  A    between atoms: _97  and  _98
REMARK   40  A    between atoms: _97  and  _100
REMARK   41  A    between atoms: _100  and  _101
REMARK   42  A    between atoms: _101  and  _102
REMARK   43  A    between atoms: _102  and  _103
REMARK   44  A    between atoms: _103  and  _104
REMARK   45  A    between atoms: _108  and  _110
REMARK   46  A    between atoms: _110  and  _111
REMARK   47  A    between atoms: _110  and  _113
REMARK   48  A    between atoms: _113  and  _114
REMARK   49  A    between atoms: _114  and  _115
REMARK   50  A    between atoms: _120  and  _122
REMARK   51  A    between atoms: _122  and  _123
REMARK   52  A    between atoms: _122  and  _125
REMARK   53  A    between atoms: _125  and  _126
REMARK   54  A    between atoms: _129  and  _131
REMARK   55  A    between atoms: _131  and  _132
REMARK   56  A    between atoms: _131  and  _134
REMARK   57  A    between atoms: _134  and  _135
REMARK   58  A    between atoms: _138  and  _140
REMARK   59  A    between atoms: _140  and  _141
REMARK   60  A    between atoms: _140  and  _143
REMARK   61  A    between atoms: _143  and  _144
REMARK   62  A    between atoms: _154  and  _156
REMARK   63  A    between atoms: _156  and  _157
REMARK   64  A    between atoms: _156  and  _159
REMARK   65  A    between atoms: _159  and  _160
REMARK   66  A    between atoms: _165  and  _167
REMARK   67  A    between atoms: _167  and  _168
REMARK   68  A    between atoms: _167  and  _170
REMARK   69  A    between atoms: _170  and  _171
REMARK   70  A    between atoms: _171  and  _172
REMARK   71  A    between atoms: _175  and  _177
REMARK   72  A    between atoms: _177  and  _178
REMARK   73  A    between atoms: _177  and  _180
REMARK   74  A    between atoms: _180  and  _181
REMARK   75  A    between atoms: _184  and  _186
REMARK   76  A    between atoms: _186  and  _187
REMARK   77  A    between atoms: _186  and  _189
REMARK   78  A    between atoms: _189  and  _190
REMARK   79  A    between atoms: _193  and  _195
REMARK   80  A    between atoms: _195  and  _196
REMARK   81  A    between atoms: _195  and  _198
REMARK   82  A    between atoms: _198  and  _199
REMARK   83  A    between atoms: _202  and  _204
REMARK   84  A    between atoms: _204  and  _205
REMARK   85  A    between atoms: _208  and  _210
REMARK   86  A    between atoms: _210  and  _211
REMARK   87  A    between atoms: _210  and  _213
REMARK   88  A    between atoms: _213  and  _214
REMARK   89  A    between atoms: _216  and  _218
REMARK   90  A    between atoms: _218  and  _219
REMARK   91  A    between atoms: _218  and  _221
REMARK   92  A    between atoms: _221  and  _222
REMARK   93  A    between atoms: _228  and  _230
REMARK   94  A    between atoms: _230  and  _231
REMARK   95  A    between atoms: _230  and  _233
REMARK   96  A    between atoms: _233  and  _234
REMARK   97  A    between atoms: _236  and  _238
REMARK   98  A    between atoms: _238  and  _239
REMARK   99  A    between atoms: _238  and  _241
REMARK  100  A    between atoms: _241  and  _242
REMARK  101  A    between atoms: _242  and  _243
REMARK  102  A    between atoms: _243  and  _244
REMARK  103  A    between atoms: _253  and  _255
REMARK  104  A    between atoms: _255  and  _256
REMARK  105  A    between atoms: _255  and  _258
REMARK  106  A    between atoms: _258  and  _259
REMARK  107  A    between atoms: _261  and  _263
REMARK  108  A    between atoms: _263  and  _264
REMARK  109  A    between atoms: _263  and  _266
REMARK  110  A    between atoms: _266  and  _267
REMARK  111  A    between atoms: _270  and  _272
REMARK  112  A    between atoms: _272  and  _273
REMARK  113  A    between atoms: _272  and  _275
REMARK  114  A    between atoms: _275  and  _276
REMARK  115  A    between atoms: _279  and  _281
REMARK  116  A    between atoms: _281  and  _282
REMARK  117  A    between atoms: _281  and  _284
REMARK  118  A    between atoms: _284  and  _285
REMARK  119  A    between atoms: _288  and  _290
REMARK  120  A    between atoms: _290  and  _291
REMARK  121  A    between atoms: _294  and  _296
REMARK  122  A    between atoms: _296  and  _297
REMARK  123  A    between atoms: _296  and  _299
REMARK  124  A    between atoms: _299  and  _300
REMARK  125  A    between atoms: _303  and  _305
REMARK  126  A    between atoms: _305  and  _306
REMARK  127  A    between atoms: _308  and  _310
REMARK  128  A    between atoms: _310  and  _311
REMARK  129  A    between atoms: _310  and  _313
REMARK  130  A    between atoms: _313  and  _314
REMARK  131  A    between atoms: _317  and  _319
REMARK  132  A    between atoms: _319  and  _320
REMARK  133  A    between atoms: _319  and  _322
REMARK  134  A    between atoms: _325  and  _327
REMARK  135  A    between atoms: _327  and  _328
REMARK  136  A    between atoms: _327  and  _330
REMARK  137  A    between atoms: _330  and  _331
REMARK  138  A    between atoms: _336  and  _338
REMARK  139  A    between atoms: _338  and  _339
REMARK  140  A    between atoms: _338  and  _341
REMARK  141  A    between atoms: _341  and  _342
REMARK  142  A    between atoms: _342  and  _343
REMARK  143  A    between atoms: _343  and  _344
REMARK  144  A    between atoms: _353  and  _355
REMARK  145  A    between atoms: _355  and  _356
REMARK  146  A    between atoms: _359  and  _361
REMARK  147  A    between atoms: _361  and  _362
REMARK  148  A    between atoms: _361  and  _364
REMARK  149  A    between atoms: _364  and  _365
REMARK  150  A    between atoms: _370  and  _372
REMARK  151  A    between atoms: _372  and  _373
REMARK  152  A    between atoms: _376  and  _378
REMARK  153  A    between atoms: _378  and  _379
REMARK  154  A    between atoms: _381  and  _383
REMARK  155  A    between atoms: _383  and  _384
REMARK  156  A    between atoms: _383  and  _386
REMARK  157  A    between atoms: _389  and  _391
REMARK  158  A    between atoms: _391  and  _392
REMARK  159  A    between atoms: _394  and  _396
REMARK  160  A    between atoms: _396  and  _397
REMARK  161  A    between atoms: _400  and  _402
REMARK  162  A    between atoms: _402  and  _403
REMARK  163  A    between atoms: _402  and  _405
REMARK  164  A    between atoms: _405  and  _406
REMARK  165  A    between atoms: _409  and  _411
REMARK  166  A    between atoms: _411  and  _412
REMARK  167  A    between atoms: _411  and  _414
REMARK  168  A    between atoms: _414  and  _415
REMARK  169  A    between atoms: _421  and  _423
REMARK  170  A    between atoms: _423  and  _424
REMARK  171  A    between atoms: _423  and  _426
REMARK  172  A    between atoms: _426  and  _427
REMARK  173  A    between atoms: _430  and  _432
REMARK  174  A    between atoms: _432  and  _433
REMARK  175  A    between atoms: _432  and  _435
REMARK  176  A    between atoms: _435  and  _436
REMARK  177  A    between atoms: _436  and  _437
REMARK  178  A    between atoms: _437  and  _438
REMARK  179  A    between atoms: _447  and  _449
REMARK  180  A    between atoms: _449  and  _450
REMARK  181  A    between atoms: _449  and  _452
REMARK  182  A    between atoms: _455  and  _457
REMARK  183  A    between atoms: _457  and  _458
REMARK  184  A    between atoms: _457  and  _460
REMARK  185  A    between atoms: _460  and  _461
REMARK  186  A    between atoms: _464  and  _466
REMARK  187  A    between atoms: _466  and  _467
REMARK  188  A    between atoms: _466  and  _469
REMARK  189  A    between atoms: _469  and  _470
REMARK  190  A    between atoms: _470  and  _471
REMARK  191  A    between atoms: _471  and  _472
REMARK  192  A    between atoms: _481  and  _483
REMARK  193  A    between atoms: _483  and  _484
REMARK  194  A    between atoms: _483  and  _486
REMARK  195  A    between atoms: _486  and  _487
REMARK  196  A    between atoms: _490  and  _492
REMARK  197  A    between atoms: _492  and  _493
REMARK  198  A    between atoms: _495  and  _497
REMARK  199  A    between atoms: _497  and  _498
REMARK  200  A    between atoms: _497  and  _500
REMARK  201  A    between atoms: _500  and  _501
REMARK  202  A    between atoms: _504  and  _506
REMARK  203  A    between atoms: _506  and  _507
REMARK  204  A    between atoms: _506  and  _509
REMARK  205  A    between atoms: _509  and  _510
REMARK  206  A    between atoms: _510  and  _511
REMARK  207  A    between atoms: _511  and  _512
REMARK  208  A    between atoms: _512  and  _513
REMARK  209  A    between atoms: _517  and  _519
REMARK  210  A    between atoms: _519  and  _520
REMARK  211  A    between atoms: _519  and  _522
REMARK  212  A    between atoms: _524  and  _526
REMARK  213  A    between atoms: _526  and  _527
REMARK  214  A    between atoms: _526  and  _529
REMARK  215  A    between atoms: _529  and  _530
REMARK  216  A    between atoms: _533  and  _535
REMARK  217  A    between atoms: _535  and  _536
REMARK  218  A    between atoms: _535  and  _538
REMARK  219  A    between atoms: _538  and  _539
REMARK  220  A    between atoms: _539  and  _540
REMARK  221  A    between atoms: _543  and  _545
REMARK  222  A    between atoms: _545  and  _546
REMARK  223  A    between atoms: _545  and  _548
REMARK  224  A    between atoms: _548  and  _549
REMARK  225  A    between atoms: _554  and  _556
REMARK  226  A    between atoms: _556  and  _557
REMARK  227  A    between atoms: _556  and  _559
REMARK  228  A    between atoms: _559  and  _560
REMARK  229  A    between atoms: _563  and  _565
REMARK  230  A    between atoms: _565  and  _566
REMARK  231  A    between atoms: _565  and  _568
REMARK  232  A    between atoms: _568  and  _569
REMARK  233  A    between atoms: _575  and  _577
REMARK  234  A    between atoms: _577  and  _578
REMARK  235  A    between atoms: _577  and  _580
REMARK  236  A    between atoms: _580  and  _581
REMARK  237  A    between atoms: _587  and  _589
REMARK  238  A    between atoms: _589  and  _590
REMARK  239  A    between atoms: _589  and  _592
REMARK  240  A    between atoms: _592  and  _593
REMARK  241  A    between atoms: _596  and  _598
REMARK  242  A    between atoms: _598  and  _599
REMARK  243  A    between atoms: _598  and  _601
REMARK  244  A    between atoms: _601  and  _602
REMARK  245  A    between atoms: _605  and  _607
REMARK  246  A    between atoms: _607  and  _608
REMARK  247  A    between atoms: _607  and  _610
REMARK  248  A    between atoms: _610  and  _611
REMARK                            x       y       z     vdW  Elec       q    Type
REMARK                         _______ _______ _______ _____ _____    ______ ____
ROOT
ATOM      1  CA  THR A   1      52.504  46.802  20.557  0.00  0.00    +0.160 C 
ENDROOT
BRANCH   1   2
ATOM      2  N   THR A   1      53.547  45.853  20.189  0.00  0.00    -0.237 NA
ATOM      3  H   THR A   1      54.022  45.309  20.937  0.00  0.00    +0.142 HD
ENDBRANCH   1   2
BRANCH   1   4
ATOM      4  CB  THR A   1      52.168  46.675  22.052  0.00  0.00    +0.134 C 
ATOM      5  CG2 THR A   1      50.992  47.569  22.411  0.00  0.00    +0.034 C 
BRANCH   4   6
ATOM      6  OG1 THR A   1      51.829  45.311  22.339  0.00  0.00    -0.383 OA
ATOM      7  HG1 THR A   1      51.611  45.222  23.301  0.00  0.00    +0.210 HD
ENDBRANCH   4   6
ENDBRANCH   1   4
BRANCH   1   8
ATOM      8  C   THR A   1      52.944  48.224  20.232  0.00  0.00    +0.227 C 
ATOM      9  O   THR A   1      52.119  49.071  19.884  0.00  0.00    -0.287 OA
ENDBRANCH   1   8
TORSDOF 4
REMARK  Name = ../refined-set-2016/4pp3/4pp3_pocket.pdb
REMARK  248 active torsions:
REMARK  status: ('A' for Active; 'I' for Inactive)
REMARK    1  A    between atoms: _1  and  _3
REMARK    2  A    between atoms: _3  and  _4
REMARK    3  A    between atoms: _3  and  _6
REMARK    4  A    between atoms: _6  and  _7
REMARK    5  A    between atoms: _7  and  _8
REMARK    6  A    between atoms: _12  and  _13
REMARK    7  A    between atoms: _18  and  _20
REMARK    8  A    between atoms: _20  and  _21
REMARK    9  A    between atoms: _20  and  _23
REMARK   10  A    between atoms: _26  and  _28
REMARK   11  A    between atoms: _28  and  _29
REMARK   12  A    between atoms: _28  and  _31
REMARK   13  A    between atoms: _31  and  _32
REMARK   14  A    between atoms: _35  and  _37
REMARK   15  A    between atoms: _37  and  _38
REMARK   16  A    between atoms: _37  and  _40
REMARK   17  A    between atoms: _40  and  _41
REMARK   18  A    between atoms: _46  and  _48
REMARK   19  A    between atoms: _48  and  _49
REMARK   20  A    between atoms: _48  and  _51
REMARK   21  A    between atoms: _51  and  _52
REMARK   22  A    between atoms: _55  and  _57
REMARK   23  A    between atoms: _57  and  _58
REMARK   24  A    between atoms: _57  and  _60
REMARK   25  A    between atoms: _62  and  _64
REMARK   26  A    between atoms: _64  and  _65
REMARK   27  A    between atoms: _64  and  _67
REMARK   28  A    between atoms: _67  and  _68
REMARK   29  A    between atoms: _68  and  _69
REMARK   30  A    between atoms: _74  and  _76
REMARK   31  A    between atoms: _76  and  _77
REMARK   32  A    between atoms: _80  and  _82
REMARK   33  A    between atoms: _82  and  _83
REMARK   34  A    between atoms: _86  and  _88
REMARK   35  A    between atoms: _88  and  _89
REMARK   36  A    between atoms: _88  and  _91
REMARK   37  A    between atoms: _91  and  _92
REMARK   38  A    between atoms: _95  and  _97
REMARK   39  A    between atoms: _97  and  _98
REMARK   40  A    between atoms: _97  and  _100
REMARK   41  A    between atoms: _100  and  _101
REMARK   42  A    between atoms: _101  and  _102
REMARK   43  A    between atoms: _102  and  _103
REMARK   44  A    between atoms: _103  and  _104
REMARK   45  A    between atoms: _108  and  _110
REMARK   46  A    between atoms: _110  and  _111
REMARK   47  A    between atoms: _110  and  _113
REMARK   48  A    between atoms: _113  and  _114
REMARK   49  A    between atoms: _114  and  _115
REMARK   50  A    between atoms: _120  and  _122
REMARK   51  A    between atoms: _122  and  _123
REMARK   52  A    between atoms: _122  and  _125
REMARK   53  A    between atoms: _125  and  _126
REMARK   54  A    between atoms: _129  and  _131
REMARK   55  A    between atoms: _131  and  _132
REMARK   56  A    between atoms: _131  and  _134
REMARK   57  A    between atoms: _134  and  _135
REMARK   58  A    between atoms: _138  and  _140
REMARK   59  A    between atoms: _140  and  _141
REMARK   60  A    between atoms: _140  and  _143
REMARK   61  A    between atoms: _143  and  _144
REMARK   62  A    between atoms: _154  and  _156
REMARK   63  A    between atoms: _156  and  _157
REMARK   64  A    between atoms: _156  and  _159
REMARK   65  A    between atoms: _159  and  _160
REMARK   66  A    between atoms: _165  and  _167
REMARK   67  A    between atoms: _167  and  _168
REMARK   68  A    between atoms: _167  and  _170
REMARK   69  A    between atoms: _170  and  _171
REMARK   70  A    between atoms: _171  and  _172
REMARK   71  A    between atoms: _175  and  _177
REMARK   72  A    between atoms: _177  and  _178
REMARK   73  A    between atoms: _177  and  _180
REMARK   74  A    between atoms: _180  and  _181
REMARK   75  A    between atoms: _184  and  _186
REMARK   76  A    between atoms: _186  and  _187
REMARK   77  A    between atoms: _186  and  _189
REMARK   78  A    between atoms: _189  and  _190
REMARK   79  A    between atoms: _193  and  _195
REMARK   80  A    between atoms: _195  and  _196
REMARK   81  A    between atoms: _195  and  _198
REMARK   82  A    between atoms: _198  and  _199
REMARK   83  A    between atoms: _202  and  _204
REMARK   84  A    between atoms: _204  and  _205
REMARK   85  A    between atoms: _208  and  _210
REMARK   86  A    between atoms: _210  and  _211
REMARK   87  A    between atoms: _210  and  _213
REMARK   88  A    between atoms: _213  and  _214
REMARK   89  A    between atoms: _216  and  _218
REMARK   90  A    between atoms: _218  and  _219
REMARK   91  A    between atoms: _218  and  _221
REMARK   92  A    between atoms: _221  and  _222
REMARK   93  A    between atoms: _228  and  _230
REMARK   94  A    between atoms: _230  and  _231
REMARK   95  A    between atoms: _230  and  _233
REMARK   96  A    between atoms: _233  and  _234
REMARK   97  A    between atoms: _236  and  _238
REMARK   98  A    between atoms: _238  and  _239
REMARK   99  A    between atoms: _238  and  _241
REMARK  100  A    between atoms: _241  and  _242
REMARK  101  A    between atoms: _242  and  _243
REMARK  102  A    between atoms: _243  and  _244
REMARK  103  A    between atoms: _253  and  _255
REMARK  104  A    between atoms: _255  and  _256
REMARK  105  A    between atoms: _255  and  _258
REMARK  106  A    between atoms: _258  and  _259
REMARK  107  A    between atoms: _261  and  _263
REMARK  108  A    between atoms: _263  and  _264
REMARK  109  A    between atoms: _263  and  _266
REMARK  110  A    between atoms: _266  and  _267
REMARK  111  A    between atoms: _270  and  _272
REMARK  112  A    between atoms: _272  and  _273
REMARK  113  A    between atoms: _272  and  _275
REMARK  114  A    between atoms: _275  and  _276
REMARK  115  A    between atoms: _279  and  _281
REMARK  116  A    between atoms: _281  and  _282
REMARK  117  A    between atoms: _281  and  _284
REMARK  118  A    between atoms: _284  and  _285
REMARK  119  A    between atoms: _288  and  _290
REMARK  120  A    between atoms: _290  and  _291
REMARK  121  A    between atoms: _294  and  _296
REMARK  122  A    between atoms: _296  and  _297
REMARK  123  A    between atoms: _296  and  _299
REMARK  124  A    between atoms: _299  and  _300
REMARK  125  A    between atoms: _303  and  _305
REMARK  126  A    between atoms: _305  and  _306
REMARK  127  A    between atoms: _308  and  _310
REMARK  128  A    between atoms: _310  and  _311
REMARK  129  A    between atoms: _310  and  _313
REMARK  130  A    between atoms: _313  and  _314
REMARK  131  A    between atoms: _317  and  _319
REMARK  132  A    between atoms: _319  and  _320
REMARK  133  A    between atoms: _319  and  _322
REMARK  134  A    between atoms: _325  and  _327
REMARK  135  A    between atoms: _327  and  _328
REMARK  136  A    between atoms: _327  and  _330
REMARK  137  A    between atoms: _330  and  _331
REMARK  138  A    between atoms: _336  and  _338
REMARK  139  A    between atoms: _338  and  _339
REMARK  140  A    between atoms: _338  and  _341
REMARK  141  A    between atoms: _341  and  _342
REMARK  142  A    between atoms: _342  and  _343
REMARK  143  A    between atoms: _343  and  _344
REMARK  144  A    between atoms: _353  and  _355
REMARK  145  A    between atoms: _355  and  _356
REMARK  146  A    between atoms: _359  and  _361
REMARK  147  A    between atoms: _361  and  _362
REMARK  148  A    between atoms: _361  and  _364
REMARK  149  A    between atoms: _364  and  _365
REMARK  150  A    between atoms: _370  and  _372
REMARK  151  A    between atoms: _372  and  _373
REMARK  152  A    between atoms: _376  and  _378
REMARK  153  A    between atoms: _378  and  _379
REMARK  154  A    between atoms: _381  and  _383
REMARK  155  A    between atoms: _383  and  _384
REMARK  156  A    between atoms: _383  and  _386
REMARK  157  A    between atoms: _389  and  _391
REMARK  158  A    between atoms: _391  and  _392
REMARK  159  A    between atoms: _394  and  _396
REMARK  160  A    between atoms: _396  and  _397
REMARK  161  A    between atoms: _400  and  _402
REMARK  162  A    between atoms: _402  and  _403
REMARK  163  A    between atoms: _402  and  _405
REMARK  164  A    between atoms: _405  and  _406
REMARK  165  A    between atoms: _409  and  _411
REMARK  166  A    between atoms: _411  and  _412
REMARK  167  A    between atoms: _411  and  _414
REMARK  168  A    between atoms: _414  and  _415
REMARK  169  A    between atoms: _421  and  _423
REMARK  170  A    between atoms: _423  and  _424
REMARK  171  A    between atoms: _423  and  _426
REMARK  172  A    between atoms: _426  and  _427
REMARK  173  A    between atoms: _430  and  _432
REMARK  174  A    between atoms: _432  and  _433
REMARK  175  A    between atoms: _432  and  _435
REMARK  176  A    between atoms: _435  and  _436
REMARK  177  A    between atoms: _436  and  _437
REMARK  178  A    between atoms: _437  and  _438
REMARK  179  A    between atoms: _447  and  _449
REMARK  180  A    between atoms: _449  and  _450
REMARK  181  A    between atoms: _449  and  _452
REMARK  182  A    between atoms: _455  and  _457
REMARK  183  A    between atoms: _457  and  _458
REMARK  184  A    between atoms: _457  and  _460
REMARK  185  A    between atoms: _460  and  _461
REMARK  186  A    between atoms: _464  and  _466
REMARK  187  A    between atoms: _466  and  _467
REMARK  188  A    between atoms: _466  and  _469
REMARK  189  A    between atoms: _469  and  _470
REMARK  190  A    between atoms: _470  and  _471
REMARK  191  A    between atoms: _471  and  _472
REMARK  192  A    between atoms: _481  and  _483
REMARK  193  A    between atoms: _483  and  _484
REMARK  194  A    between atoms: _483  and  _486
REMARK  195  A    between atoms: _486  and  _487
REMARK  196  A    between atoms: _490  and  _492
REMARK  197  A    between atoms: _492  and  _493
REMARK  198  A    between atoms: _495  and  _497
REMARK  199  A    between atoms: _497  and  _498
REMARK  200  A    between atoms: _497  and  _500
REMARK  201  A    between atoms: _500  and  _501
REMARK  202  A    between atoms: _504  and  _506
REMARK  203  A    between atoms: _506  and  _507
REMARK  204  A    between atoms: _506  and  _509
REMARK  205  A    between atoms: _509  and  _510
REMARK  206  A    between atoms: _510  and  _511
REMARK  207  A    between atoms: _511  and  _512
REMARK  208  A    between atoms: _512  and  _513
REMARK  209  A    between atoms: _517  and  _519
REMARK  210  A    between atoms: _519  and  _520
REMARK  211  A    between atoms: _519  and  _522
REMARK  212  A    between atoms: _524  and  _526
REMARK  213  A    between atoms: _526  and  _527
REMARK  214  A    between atoms: _526  and  _529
REMARK  215  A    between atoms: _529  and  _530
REMARK  216  A    between atoms: _533  and  _535
REMARK  217  A    between atoms: _535  and  _536
REMARK  218  A    between atoms: _535  and  _538
REMARK  219  A    between atoms: _538  and  _539
REMARK  220  A    between atoms: _539  and  _540
REMARK  221  A    between atoms: _543  and  _545
REMARK  222  A    between atoms: _545  and  _546
REMARK  223  A    between atoms: _545  and  _548
REMARK  224  A    between atoms: _548  and  _549
REMARK  225  A    between atoms: _554  and  _556
REMARK  226  A    between atoms: _556  and  _557
REMARK  227  A    between atoms: _556  and  _559
REMARK  228  A    between atoms: _559  and  _560
REMARK  229  A    between atoms: _563  and  _565
REMARK  230  A    between atoms: _565  and  _566
REMARK  231  A    between atoms: _565  and  _568
REMARK  232  A    between atoms: _568  and  _569
REMARK  233  A    between atoms: _575  and  _577
REMARK  234  A    between atoms: _577  and  _578
REMARK  235  A    between atoms: _577  and  _580
REMARK  236  A    between atoms: _580  and  _581
REMARK  237  A    between atoms: _587  and  _589
REMARK  238  A    between atoms: _589  and  _590
REMARK  239  A    between atoms: _589  and  _592
REMARK  240  A    between atoms: _592  and  _593
REMARK  241  A    between atoms: _596  and  _598
REMARK  242  A    between atoms: _598  and  _599
REMARK  243  A    between atoms: _598  and  _601
REMARK  244  A    between atoms: _601  and  _602
REMARK  245  A    between atoms: _605  and  _607
REMARK  246  A    between atoms: _607  and  _608
REMARK  247  A    between atoms: _607  and  _610
REMARK  248  A    between atoms: _610  and  _611
REMARK                            x       y       z     vdW  Elec       q    Type
REMARK                         _______ _______ _______ _____ _____    ______ ____
ROOT
ATOM      1  CA  LEU A   5      58.879  51.626  26.386  0.00  0.00    +0.149 C 
ENDROOT
BRANCH   1   2
ATOM      2  C   LEU A   5      59.113  51.979  27.844  0.00  0.00    +0.241 C 
ATOM      3  O   LEU A   5      58.281  51.687  28.700  0.00  0.00    -0.273 OA
ATOM      4  N   ILE A   6      60.241  52.614  28.130  0.00  0.00    -0.297 N 
ATOM      5  H   ILE A   6      60.912  52.825  27.364  0.00  0.00    +0.150 HD
BRANCH   4   6
ATOM      6  CA  ILE A   6      60.565  53.026  29.496  0.00  0.00    +0.149 C 
BRANCH   6   7
ATOM      7  C   ILE A   6      59.538  54.031  30.039  0.00  0.00    +0.241 C 
ATOM      8  O   ILE A   6      59.076  53.899  31.176  0.00  0.00    -0.273 OA
ATOM      9  N   ALA A   7      59.185  55.029  29.233  0.00  0.00    -0.297 N 
ATOM     10  H   ALA A   7      59.623  55.106  28.293  0.00  0.00    +0.150 HD
BRANCH   9  11
ATOM     11  CA  ALA A   7      58.198  56.014  29.642  0.00  0.00    +0.149 C 
ATOM     12  CB  ALA A   7      57.969  57.022  28.513  0.00  0.00    +0.031 C 
BRANCH  11  13
ATOM     13  C   ALA A   7      56.900  55.287  29.989  0.00  0.00    +0.241 C 
ATOM     14  O   ALA A   7      56.253  55.574  31.001  0.00  0.00    -0.273 OA
ATOM     15  N   SER A   8      56.526  54.327  29.152  0.00  0.00    -0.295 N 
ATOM     16  H   SER A   8      57.119  54.120  28.323  0.00  0.00    +0.150 HD
BRANCH  15  17
ATOM     17  CA  SER A   8      55.300  53.551  29.364  0.00  0.00    +0.178 C 
BRANCH  17  18
ATOM     18  C   SER A   8      55.231  52.710  30.632  0.00  0.00    +0.243 C 
ATOM     19  O   SER A   8      54.269  52.812  31.396  0.00  0.00    -0.273 OA
ATOM     20  N   PHE A   9      56.211  51.855  30.888  0.00  0.00    -0.297 N 
ATOM     21  H   PHE A   9      57.023  51.764  30.244  0.00  0.00    +0.150 HD
BRANCH  20  22
ATOM     22  CA  PHE A   9      56.119  51.048  32.094  0.00  0.00    +0.153 C 
BRANCH  22  23
ATOM     23  C   PHE A   9      56.356  51.891  33.348  0.00  0.00    +0.241 C 
ATOM     24  O   PHE A   9      55.908  51.535  34.444  0.00  0.00    -0.273 OA
ATOM     25  N   SER A  10      57.037  53.023  33.191  0.00  0.00    -0.296 N 
ATOM     26  H   SER A  10      57.403  53.285  32.253  0.00  0.00    +0.150 HD
BRANCH  25  27
ATOM     27  CA  SER A  10      57.269  53.894  34.333  0.00  0.00    +0.166 C 
BRANCH  27  28
ATOM     28  C   SER A  10      55.950  54.502  34.790  0.00  0.00    +0.229 C 
ATOM     29  O   SER A  10      55.669  54.561  35.990  0.00  0.00    -0.286 OA
ENDBRANCH  27  28
BRANCH  27  30
ATOM     30  CB  SER A  10      58.244  55.027  33.979  0.00  0.00    +0.165 C 
BRANCH  30  31
ATOM     31  OG  SER A  10      59.597  54.589  33.935  0.00  0.00    -0.380 OA
ATOM     32  H   SER A  10      59.691  53.880  33.250  0.00  0.00    +0.211 HD
ENDBRANCH  30  31
ENDBRANCH  27  30
ENDBRANCH  25  27
ENDBRANCH  22  23
BRANCH  22  33
ATOM     33  CB  PHE A   9      57.057  49.821  32.024  0.00  0.00    +0.055 C 
BRANCH  33  34
ATOM     34  CG  PHE A   9      58.517  50.135  32.168  0.00  0.00    -0.020 A 
ATOM     35  CD2 PHE A   9      59.023  50.634  33.362  0.00  0.00    -0.004 A 
ATOM     36  CE2 PHE A   9      60.380  50.879  33.524  0.00  0.00    -0.000 A 
ATOM     37  CZ  PHE A   9      61.260  50.626  32.477  0.00  0.00    -0.000 A 
ATOM     38  CE1 PHE A   9      60.778  50.124  31.270  0.00  0.00    -0.000 A 
ATOM     39  CD1 PHE A   9      59.406  49.883  31.126  0.00  0.00    -0.004 A 
ENDBRANCH  33  34
ENDBRANCH  22  33
ENDBRANCH  20  22
ENDBRANCH  17  18
BRANCH  17  40
ATOM     40  CB  SER A   8      55.042  52.626  28.168  0.00  0.00    +0.166 C 
BRANCH  40  41
ATOM     41  OG  SER A   8      54.652  53.372  27.024  0.00  0.00    -0.380 OA
ATOM     42  H   SER A   8      53.821  53.872  27.225  0.00  0.00    +0.211 HD
ENDBRANCH  40  41
ENDBRANCH  17  40
ENDBRANCH  15  17
ENDBRANCH  11  13
ENDBRANCH   9  11
ENDBRANCH   6   7
BRANCH   6  43
ATOM     43  CB  ILE A   6      61.969  53.642  29.530  0.00  0.00    +0.027 C 
ATOM     44  CG2 ILE A   6      62.210  54.363  30.849  0.00  0.00    +0.002 C 
BRANCH  43  45
ATOM     45  CG1 ILE A   6      63.011  52.539  29.292  0.00  0.00    +0.002 C 
ATOM     46  CD1 ILE A   6      64.450  53.053  29.136  0.00  0.00    +0.000 C 
ENDBRANCH  43  45
ENDBRANCH   6  43
ENDBRANCH   4   6
ENDBRANCH   1   2
BRANCH   1  49
ATOM     47  C   LEU A   4      58.662  53.844  25.447  0.00  0.00    +0.241 C 
ATOM     48  O   LEU A   4      57.644  54.056  26.114  0.00  0.00    -0.273 OA
ATOM     49  N   LEU A   5      59.331  52.697  25.513  0.00  0.00    -0.297 N 
ATOM     50  H   LEU A   5      60.185  52.565  24.935  0.00  0.00    +0.150 HD
BRANCH  47  51
ATOM     51  CA  LEU A   4      59.202  54.904  24.499  0.00  0.00    +0.149 C 
BRANCH  51  54
ATOM     52  C   GLU A   3      61.248  55.417  25.721  0.00  0.00    +0.241 C 
ATOM     53  O   GLU A   3      60.627  55.713  26.738  0.00  0.00    -0.273 OA
ATOM     54  N   LEU A   4      60.654  55.030  24.595  0.00  0.00    -0.297 N 
ATOM     55  H   LEU A   4      61.238  54.812  23.763  0.00  0.00    +0.150 HD
BRANCH  52  56
ATOM     56  CA  GLU A   3      62.775  55.501  25.690  0.00  0.00    +0.149 C 
BRANCH  56  59
ATOM     57  C   ASN A   2      63.292  53.167  25.244  0.00  0.00    +0.241 C 
ATOM     58  O   ASN A   2      62.719  52.827  26.275  0.00  0.00    -0.273 OA
ATOM     59  N   GLU A   3      63.366  54.437  24.863  0.00  0.00    -0.297 N 
ATOM     60  H   GLU A   3      63.845  54.682  23.973  0.00  0.00    +0.150 HD
BRANCH  57  61
ATOM     61  CA  ASN A   2      63.922  52.112  24.330  0.00  0.00    +0.158 C 
BRANCH  61  64
ATOM     62  C   TRP A   1      62.242  52.244  22.590  0.00  0.00    +0.239 C 
ATOM     63  O   TRP A   1      61.342  52.064  23.409  0.00  0.00    -0.274 OA
ATOM     64  N   ASN A   2      63.524  52.290  22.942  0.00  0.00    -0.297 N 
ATOM     65  H   ASN A   2      64.250  52.455  22.216  0.00  0.00    +0.150 HD
BRANCH  62  66
ATOM     66  CA  TRP A   1      61.902  52.418  21.114  0.00  0.00    +0.149 C 
BRANCH  66  67
ATOM     67  N   TRP A   1      62.612  53.512  20.466  0.00  0.00    -0.238 NA
ATOM     68  H   TRP A   1      63.134  53.340  19.583  0.00  0.00    +0.142 HD
ENDBRANCH  66  67
BRANCH  66  69
ATOM     69  CB  TRP A   1      62.157  51.094  20.396  0.00  0.00    +0.054 C 
BRANCH  69  70
ATOM     70  CG  TRP A   1      63.543  50.529  20.589  0.00  0.00    -0.002 A 
ATOM     71  CD2 TRP A   1      63.952  49.614  21.614  0.00  0.00    +0.013 A 
ATOM     72  CE3 TRP A   1      63.301  48.965  22.675  0.00  0.00    +0.001 A 
ATOM     73  CZ3 TRP A   1      64.039  48.118  23.503  0.00  0.00    +0.000 A 
ATOM     74  CH2 TRP A   1      65.416  47.914  23.294  0.00  0.00    +0.001 A 
ATOM     75  CZ2 TRP A   1      66.077  48.532  22.263  0.00  0.00    +0.017 A 
ATOM     76  CE2 TRP A   1      65.334  49.382  21.425  0.00  0.00    +0.056 A 
ATOM     77  NE1 TRP A   1      65.720  50.121  20.339  0.00  0.00    -0.352 N 
ATOM     78  HE1 TRP A   1      66.683  50.155  19.948  0.00  0.00    +0.166 HD
ATOM     79  CD1 TRP A   1      64.649  50.804  19.849  0.00  0.00    +0.068 A 
ENDBRANCH  69  70
ENDBRANCH  66  69
ENDBRANCH  62  66
ENDBRANCH  61  64
BRANCH  61  80
ATOM     80  CB  ASN A   2      65.450  52.121  24.437  0.00  0.00    +0.114 C 
BRANCH  80  81
ATOM     81  CG  ASN A   2      66.058  53.354  23.833  0.00  0.00    +0.222 C 
ATOM     82  ND2 ASN A   2      66.784  54.116  24.647  0.00  0.00    -0.329 N 
ATOM     83 HD21 ASN A   2      66.916  53.837  25.640  0.00  0.00    +0.145 HD
ATOM     84 HD22 ASN A   2      67.220  54.990  24.290  0.00  0.00    +0.145 HD
ATOM     85  OD1 ASN A   2      65.871  53.637  22.652  0.00  0.00    -0.275 OA
ENDBRANCH  80  81
ENDBRANCH  61  80
ENDBRANCH  57  61
ENDBRANCH  56  59
BRANCH  56  86
ATOM     86  CB  GLU A   3      63.157  56.877  25.158  0.00  0.00    +0.041 C 
BRANCH  86  87
ATOM     87  CG  GLU A   3      64.610  57.229  25.334  0.00  0.00    +0.116 C 
BRANCH  87  88
ATOM     88  CD  GLU A   3      64.938  58.585  24.744  0.00  0.00    +0.365 C 
ATOM     89  OE2 GLU A   3      64.072  59.489  24.789  0.00  0.00    -0.246 OA
ATOM     90  OE1 GLU A   3      66.058  58.738  24.234  0.00  0.00    -0.246 OA
ENDBRANCH  87  88
ENDBRANCH  86  87
ENDBRANCH  56  86
ENDBRANCH  52  56
ENDBRANCH  51  54
BRANCH  51  91
ATOM     91  CB  LEU A   4      58.822  54.556  23.053  0.00  0.00    +0.029 C 
BRANCH  91  92
ATOM     92  CG  LEU A   4      59.044  55.675  22.018  0.00  0.00    +0.002 C 
ATOM     93  CD2 LEU A   4      58.104  56.822  22.335  0.00  0.00    +0.000 C 
ATOM     94  CD1 LEU A   4      58.829  55.140  20.608  0.00  0.00    +0.000 C 
ENDBRANCH  91  92
ENDBRANCH  51  91
ENDBRANCH  47  51
ENDBRANCH   1  49
BRANCH   1  95
ATOM     95  CB  LEU A   5      59.575  50.296  26.040  0.00  0.00    +0.029 C 
BRANCH  95  96
ATOM     96  CG  LEU A   5      59.401  49.734  24.623  0.00  0.00    +0.002 C 
ATOM     97  CD2 LEU A   5      59.948  48.312  24.602  0.00  0.00    +0.000 C 
ATOM     98  CD1 LEU A   5      57.932  49.758  24.195  0.00  0.00    +0.000 C 
ENDBRANCH  95  96
ENDBRANCH   1  95
TORSDOF 39
REMARK  Name = ../refined-set-2016/4pp3/4pp3_pocket.pdb
REMARK  248 active torsions:
REMARK  status: ('A' for Active; 'I' for Inactive)
REMARK    1  A    between atoms: _1  and  _3
REMARK    2  A    between atoms: _3  and  _4
REMARK    3  A    between atoms: _3  and  _6
REMARK    4  A    between atoms: _6  and  _7
REMARK    5  A    between atoms: _7  and  _8
REMARK    6  A    between atoms: _12  and  _13
REMARK    7  A    between atoms: _18  and  _20
REMARK    8  A    between atoms: _20  and  _21
REMARK    9  A    between atoms: _20  and  _23
REMARK   10  A    between atoms: _26  and  _28
REMARK   11  A    between atoms: _28  and  _29
REMARK   12  A    between atoms: _28  and  _31
REMARK   13  A    between atoms: _31  and  _32
REMARK   14  A    between atoms: _35  and  _37
REMARK   15  A    between atoms: _37  and  _38
REMARK   16  A    between atoms: _37  and  _40
REMARK   17  A    between atoms: _40  and  _41
REMARK   18  A    between atoms: _46  and  _48
REMARK   19  A    between atoms: _48  and  _49
REMARK   20  A    between atoms: _48  and  _51
REMARK   21  A    between atoms: _51  and  _52
REMARK   22  A    between atoms: _55  and  _57
REMARK   23  A    between atoms: _57  and  _58
REMARK   24  A    between atoms: _57  and  _60
REMARK   25  A    between atoms: _62  and  _64
REMARK   26  A    between atoms: _64  and  _65
REMARK   27  A    between atoms: _64  and  _67
REMARK   28  A    between atoms: _67  and  _68
REMARK   29  A    between atoms: _68  and  _69
REMARK   30  A    between atoms: _74  and  _76
REMARK   31  A    between atoms: _76  and  _77
REMARK   32  A    between atoms: _80  and  _82
REMARK   33  A    between atoms: _82  and  _83
REMARK   34  A    between atoms: _86  and  _88
REMARK   35  A    between atoms: _88  and  _89
REMARK   36  A    between atoms: _88  and  _91
REMARK   37  A    between atoms: _91  and  _92
REMARK   38  A    between atoms: _95  and  _97
REMARK   39  A    between atoms: _97  and  _98
REMARK   40  A    between atoms: _97  and  _100
REMARK   41  A    between atoms: _100  and  _101
REMARK   42  A    between atoms: _101  and  _102
REMARK   43  A    between atoms: _102  and  _103
REMARK   44  A    between atoms: _103  and  _104
REMARK   45  A    between atoms: _108  and  _110
REMARK   46  A    between atoms: _110  and  _111
REMARK   47  A    between atoms: _110  and  _113
REMARK   48  A    between atoms: _113  and  _114
REMARK   49  A    between atoms: _114  and  _115
REMARK   50  A    between atoms: _120  and  _122
REMARK   51  A    between atoms: _122  and  _123
REMARK   52  A    between atoms: _122  and  _125
REMARK   53  A    between atoms: _125  and  _126
REMARK   54  A    between atoms: _129  and  _131
REMARK   55  A    between atoms: _131  and  _132
REMARK   56  A    between atoms: _131  and  _134
REMARK   57  A    between atoms: _134  and  _135
REMARK   58  A    between atoms: _138  and  _140
REMARK   59  A    between atoms: _140  and  _141
REMARK   60  A    between atoms: _140  and  _143
REMARK   61  A    between atoms: _143  and  _144
REMARK   62  A    between atoms: _154  and  _156
REMARK   63  A    between atoms: _156  and  _157
REMARK   64  A    between atoms: _156  and  _159
REMARK   65  A    between atoms: _159  and  _160
REMARK   66  A    between atoms: _165  and  _167
REMARK   67  A    between atoms: _167  and  _168
REMARK   68  A    between atoms: _167  and  _170
REMARK   69  A    between atoms: _170  and  _171
REMARK   70  A    between atoms: _171  and  _172
REMARK   71  A    between atoms: _175  and  _177
REMARK   72  A    between atoms: _177  and  _178
REMARK   73  A    between atoms: _177  and  _180
REMARK   74  A    between atoms: _180  and  _181
REMARK   75  A    between atoms: _184  and  _186
REMARK   76  A    between atoms: _186  and  _187
REMARK   77  A    between atoms: _186  and  _189
REMARK   78  A    between atoms: _189  and  _190
REMARK   79  A    between atoms: _193  and  _195
REMARK   80  A    between atoms: _195  and  _196
REMARK   81  A    between atoms: _195  and  _198
REMARK   82  A    between atoms: _198  and  _199
REMARK   83  A    between atoms: _202  and  _204
REMARK   84  A    between atoms: _204  and  _205
REMARK   85  A    between atoms: _208  and  _210
REMARK   86  A    between atoms: _210  and  _211
REMARK   87  A    between atoms: _210  and  _213
REMARK   88  A    between atoms: _213  and  _214
REMARK   89  A    between atoms: _216  and  _218
REMARK   90  A    between atoms: _218  and  _219
REMARK   91  A    between atoms: _218  and  _221
REMARK   92  A    between atoms: _221  and  _222
REMARK   93  A    between atoms: _228  and  _230
REMARK   94  A    between atoms: _230  and  _231
REMARK   95  A    between atoms: _230  and  _233
REMARK   96  A    between atoms: _233  and  _234
REMARK   97  A    between atoms: _236  and  _238
REMARK   98  A    between atoms: _238  and  _239
REMARK   99  A    between atoms: _238  and  _241
REMARK  100  A    between atoms: _241  and  _242
REMARK  101  A    between atoms: _242  and  _243
REMARK  102  A    between atoms: _243  and  _244
REMARK  103  A    between atoms: _253  and  _255
REMARK  104  A    between atoms: _255  and  _256
REMARK  105  A    between atoms: _255  and  _258
REMARK  106  A    between atoms: _258  and  _259
REMARK  107  A    between atoms: _261  and  _263
REMARK  108  A    between atoms: _263  and  _264
REMARK  109  A    between atoms: _263  and  _266
REMARK  110  A    between atoms: _266  and  _267
REMARK  111  A    between atoms: _270  and  _272
REMARK  112  A    between atoms: _272  and  _273
REMARK  113  A    between atoms: _272  and  _275
REMARK  114  A    between atoms: _275  and  _276
REMARK  115  A    between atoms: _279  and  _281
REMARK  116  A    between atoms: _281  and  _282
REMARK  117  A    between atoms: _281  and  _284
REMARK  118  A    between atoms: _284  and  _285
REMARK  119  A    between atoms: _288  and  _290
REMARK  120  A    between atoms: _290  and  _291
REMARK  121  A    between atoms: _294  and  _296
REMARK  122  A    between atoms: _296  and  _297
REMARK  123  A    between atoms: _296  and  _299
REMARK  124  A    between atoms: _299  and  _300
REMARK  125  A    between atoms: _303  and  _305
REMARK  126  A    between atoms: _305  and  _306
REMARK  127  A    between atoms: _308  and  _310
REMARK  128  A    between atoms: _310  and  _311
REMARK  129  A    between atoms: _310  and  _313
REMARK  130  A    between atoms: _313  and  _314
REMARK  131  A    between atoms: _317  and  _319
REMARK  132  A    between atoms: _319  and  _320
REMARK  133  A    between atoms: _319  and  _322
REMARK  134  A    between atoms: _325  and  _327
REMARK  135  A    between atoms: _327  and  _328
REMARK  136  A    between atoms: _327  and  _330
REMARK  137  A    between atoms: _330  and  _331
REMARK  138  A    between atoms: _336  and  _338
REMARK  139  A    between atoms: _338  and  _339
REMARK  140  A    between atoms: _338  and  _341
REMARK  141  A    between atoms: _341  and  _342
REMARK  142  A    between atoms: _342  and  _343
REMARK  143  A    between atoms: _343  and  _344
REMARK  144  A    between atoms: _353  and  _355
REMARK  145  A    between atoms: _355  and  _356
REMARK  146  A    between atoms: _359  and  _361
REMARK  147  A    between atoms: _361  and  _362
REMARK  148  A    between atoms: _361  and  _364
REMARK  149  A    between atoms: _364  and  _365
REMARK  150  A    between atoms: _370  and  _372
REMARK  151  A    between atoms: _372  and  _373
REMARK  152  A    between atoms: _376  and  _378
REMARK  153  A    between atoms: _378  and  _379
REMARK  154  A    between atoms: _381  and  _383
REMARK  155  A    between atoms: _383  and  _384
REMARK  156  A    between atoms: _383  and  _386
REMARK  157  A    between atoms: _389  and  _391
REMARK  158  A    between atoms: _391  and  _392
REMARK  159  A    between atoms: _394  and  _396
REMARK  160  A    between atoms: _396  and  _397
REMARK  161  A    between atoms: _400  and  _402
REMARK  162  A    between atoms: _402  and  _403
REMARK  163  A    between atoms: _402  and  _405
REMARK  164  A    between atoms: _405  and  _406
REMARK  165  A    between atoms: _409  and  _411
REMARK  166  A    between atoms: _411  and  _412
REMARK  167  A    between atoms: _411  and  _414
REMARK  168  A    between atoms: _414  and  _415
REMARK  169  A    between atoms: _421  and  _423
REMARK  170  A    between atoms: _423  and  _424
REMARK  171  A    between atoms: _423  and  _426
REMARK  172  A    between atoms: _426  and  _427
REMARK  173  A    between atoms: _430  and  _432
REMARK  174  A    between atoms: _432  and  _433
REMARK  175  A    between atoms: _432  and  _435
REMARK  176  A    between atoms: _435  and  _436
REMARK  177  A    between atoms: _436  and  _437
REMARK  178  A    between atoms: _437  and  _438
REMARK  179  A    between atoms: _447  and  _449
REMARK  180  A    between atoms: _449  and  _450
REMARK  181  A    between atoms: _449  and  _452
REMARK  182  A    between atoms: _455  and  _457
REMARK  183  A    between atoms: _457  and  _458
REMARK  184  A    between atoms: _457  and  _460
REMARK  185  A    between atoms: _460  and  _461
REMARK  186  A    between atoms: _464  and  _466
REMARK  187  A    between atoms: _466  and  _467
REMARK  188  A    between atoms: _466  and  _469
REMARK  189  A    between atoms: _469  and  _470
REMARK  190  A    between atoms: _470  and  _471
REMARK  191  A    between atoms: _471  and  _472
REMARK  192  A    between atoms: _481  and  _483
REMARK  193  A    between atoms: _483  and  _484
REMARK  194  A    between atoms: _483  and  _486
REMARK  195  A    between atoms: _486  and  _487
REMARK  196  A    between atoms: _490  and  _492
REMARK  197  A    between atoms: _492  and  _493
REMARK  198  A    between atoms: _495  and  _497
REMARK  199  A    between atoms: _497  and  _498
REMARK  200  A    between atoms: _497  and  _500
REMARK  201  A    between atoms: _500  and  _501
REMARK  202  A    between atoms: _504  and  _506
REMARK  203  A    between atoms: _506  and  _507
REMARK  204  A    between atoms: _506  and  _509
REMARK  205  A    between atoms: _509  and  _510
REMARK  206  A    between atoms: _510  and  _511
REMARK  207  A    between atoms: _511  and  _512
REMARK  208  A    between atoms: _512  and  _513
REMARK  209  A    between atoms: _517  and  _519
REMARK  210  A    between atoms: _519  and  _520
REMARK  211  A    between atoms: _519  and  _522
REMARK  212  A    between atoms: _524  and  _526
REMARK  213  A    between atoms: _526  and  _527
REMARK  214  A    between atoms: _526  and  _529
REMARK  215  A    between atoms: _529  and  _530
REMARK  216  A    between atoms: _533  and  _535
REMARK  217  A    between atoms: _535  and  _536
REMARK  218  A    between atoms: _535  and  _538
REMARK  219  A    between atoms: _538  and  _539
REMARK  220  A    between atoms: _539  and  _540
REMARK  221  A    between atoms: _543  and  _545
REMARK  222  A    between atoms: _545  and  _546
REMARK  223  A    between atoms: _545  and  _548
REMARK  224  A    between atoms: _548  and  _549
REMARK  225  A    between atoms: _554  and  _556
REMARK  226  A    between atoms: _556  and  _557
REMARK  227  A    between atoms: _556  and  _559
REMARK  228  A    between atoms: _559  and  _560
REMARK  229  A    between atoms: _563  and  _565
REMARK  230  A    between atoms: _565  and  _566
REMARK  231  A    between atoms: _565  and  _568
REMARK  232  A    between atoms: _568  and  _569
REMARK  233  A    between atoms: _575  and  _577
REMARK  234  A    between atoms: _577  and  _578
REMARK  235  A    between atoms: _577  and  _580
REMARK  236  A    between atoms: _580  and  _581
REMARK  237  A    between atoms: _587  and  _589
REMARK  238  A    between atoms: _589  and  _590
REMARK  239  A    between atoms: _589  and  _592
REMARK  240  A    between atoms: _592  and  _593
REMARK  241  A    between atoms: _596  and  _598
REMARK  242  A    between atoms: _598  and  _599
REMARK  243  A    between atoms: _598  and  _601
REMARK  244  A    between atoms: _601  and  _602
REMARK  245  A    between atoms: _605  and  _607
REMARK  246  A    between atoms: _607  and  _608
REMARK  247  A    between atoms: _607  and  _610
REMARK  248  A    between atoms: _610  and  _611
REMARK                            x       y       z     vdW  Elec       q    Type
REMARK                         _______ _______ _______ _____ _____    ______ ____
ROOT
ATOM      1  CA  ARG A   1      52.158  52.216  34.550  0.00  0.00    +0.145 C 
ENDROOT
BRANCH   1   2
ATOM      2  C   ARG A   1      52.469  51.840  35.999  0.00  0.00    +0.238 C 
ATOM      3  O   ARG A   1      51.597  51.358  36.720  0.00  0.00    -0.274 OA
ATOM      4  N   SER A   2      53.717  52.065  36.414  0.00  0.00    -0.296 N 
ATOM      5  H   SER A   2      54.387  52.511  35.756  0.00  0.00    +0.150 HD
BRANCH   4   6
ATOM      6  CA  SER A   2      54.185  51.709  37.761  0.00  0.00    +0.166 C 
BRANCH   6   7
ATOM      7  C   SER A   2      53.859  52.721  38.854  0.00  0.00    +0.229 C 
ATOM      8  O   SER A   2      54.193  52.516  40.025  0.00  0.00    -0.286 OA
ENDBRANCH   6   7
BRANCH   6   9
ATOM      9  CB  SER A   2      55.699  51.466  37.739  0.00  0.00    +0.165 C 
BRANCH   9  10
ATOM     10  OG  SER A   2      56.036  50.452  36.790  0.00  0.00    -0.380 OA
ATOM     11  H   SER A   2      55.745  50.736  35.888  0.00  0.00    +0.211 HD
ENDBRANCH   9  10
ENDBRANCH   6   9
ENDBRANCH   4   6
ENDBRANCH   1   2
BRANCH   1  12
ATOM     12  N   ARG A   1      52.990  53.324  34.130  0.00  0.00    -0.238 NA
ATOM     13  H   ARG A   1      53.683  53.180  33.368  0.00  0.00    +0.142 HD
ENDBRANCH   1  12
BRANCH   1  14
ATOM     14  CB  ARG A   1      52.393  51.002  33.639  0.00  0.00    +0.030 C 
BRANCH  14  15
ATOM     15  CG  ARG A   1      51.516  49.792  33.943  0.00  0.00    +0.045 C 
BRANCH  15  16
ATOM     16  CD  ARG A   1      52.055  48.526  33.247  0.00  0.00    +0.174 C 
BRANCH  16  17
ATOM     17  NE  ARG A   1      52.191  48.721  31.802  0.00  0.00    -0.265 N 
ATOM     18  HE  ARG A   1      51.400  49.169  31.297  0.00  0.00    +0.259 HD
ATOM     19  CZ  ARG A   1      53.260  48.364  31.089  0.00  0.00    +0.342 C 
ATOM     20  NH2 ARG A   1      54.311  47.786  31.667  0.00  0.00    -0.292 N 
ATOM     21 HH21 ARG A   1      54.307  47.606  32.691  0.00  0.00    +0.255 HD
ATOM     22 HH22 ARG A   1      55.136  47.515  31.094  0.00  0.00    +0.255 HD
ATOM     23  NH1 ARG A   1      53.285  48.611  29.788  0.00  0.00    -0.292 N 
ATOM     24 HH11 ARG A   1      52.476  49.079  29.332  0.00  0.00    +0.255 HD
ATOM     25 HH12 ARG A   1      54.114  48.337  29.222  0.00  0.00    +0.255 HD
ENDBRANCH  16  17
ENDBRANCH  15  16
ENDBRANCH  14  15
ENDBRANCH   1  14
TORSDOF 10
REMARK  Name = ../refined-set-2016/4pp3/4pp3_pocket.pdb
REMARK  248 active torsions:
REMARK  status: ('A' for Active; 'I' for Inactive)
REMARK    1  A    between atoms: _1  and  _3
REMARK    2  A    between atoms: _3  and  _4
REMARK    3  A    between atoms: _3  and  _6
REMARK    4  A    between atoms: _6  and  _7
REMARK    5  A    between atoms: _7  and  _8
REMARK    6  A    between atoms: _12  and  _13
REMARK    7  A    between atoms: _18  and  _20
REMARK    8  A    between atoms: _20  and  _21
REMARK    9  A    between atoms: _20  and  _23
REMARK   10  A    between atoms: _26  and  _28
REMARK   11  A    between atoms: _28  and  _29
REMARK   12  A    between atoms: _28  and  _31
REMARK   13  A    between atoms: _31  and  _32
REMARK   14  A    between atoms: _35  and  _37
REMARK   15  A    between atoms: _37  and  _38
REMARK   16  A    between atoms: _37  and  _40
REMARK   17  A    between atoms: _40  and  _41
REMARK   18  A    between atoms: _46  and  _48
REMARK   19  A    between atoms: _48  and  _49
REMARK   20  A    between atoms: _48  and  _51
REMARK   21  A    between atoms: _51  and  _52
REMARK   22  A    between atoms: _55  and  _57
REMARK   23  A    between atoms: _57  and  _58
REMARK   24  A    between atoms: _57  and  _60
REMARK   25  A    between atoms: _62  and  _64
REMARK   26  A    between atoms: _64  and  _65
REMARK   27  A    between atoms: _64  and  _67
REMARK   28  A    between atoms: _67  and  _68
REMARK   29  A    between atoms: _68  and  _69
REMARK   30  A    between atoms: _74  and  _76
REMARK   31  A    between atoms: _76  and  _77
REMARK   32  A    between atoms: _80  and  _82
REMARK   33  A    between atoms: _82  and  _83
REMARK   34  A    between atoms: _86  and  _88
REMARK   35  A    between atoms: _88  and  _89
REMARK   36  A    between atoms: _88  and  _91
REMARK   37  A    between atoms: _91  and  _92
REMARK   38  A    between atoms: _95  and  _97
REMARK   39  A    between atoms: _97  and  _98
REMARK   40  A    between atoms: _97  and  _100
REMARK   41  A    between atoms: _100  and  _101
REMARK   42  A    between atoms: _101  and  _102
REMARK   43  A    between atoms: _102  and  _103
REMARK   44  A    between atoms: _103  and  _104
REMARK   45  A    between atoms: _108  and  _110
REMARK   46  A    between atoms: _110  and  _111
REMARK   47  A    between atoms: _110  and  _113
REMARK   48  A    between atoms: _113  and  _114
REMARK   49  A    between atoms: _114  and  _115
REMARK   50  A    between atoms: _120  and  _122
REMARK   51  A    between atoms: _122  and  _123
REMARK   52  A    between atoms: _122  and  _125
REMARK   53  A    between atoms: _125  and  _126
REMARK   54  A    between atoms: _129  and  _131
REMARK   55  A    between atoms: _131  and  _132
REMARK   56  A    between atoms: _131  and  _134
REMARK   57  A    between atoms: _134  and  _135
REMARK   58  A    between atoms: _138  and  _140
REMARK   59  A    between atoms: _140  and  _141
REMARK   60  A    between atoms: _140  and  _143
REMARK   61  A    between atoms: _143  and  _144
REMARK   62  A    between atoms: _154  and  _156
REMARK   63  A    between atoms: _156  and  _157
REMARK   64  A    between atoms: _156  and  _159
REMARK   65  A    between atoms: _159  and  _160
REMARK   66  A    between atoms: _165  and  _167
REMARK   67  A    between atoms: _167  and  _168
REMARK   68  A    between atoms: _167  and  _170
REMARK   69  A    between atoms: _170  and  _171
REMARK   70  A    between atoms: _171  and  _172
REMARK   71  A    between atoms: _175  and  _177
REMARK   72  A    between atoms: _177  and  _178
REMARK   73  A    between atoms: _177  and  _180
REMARK   74  A    between atoms: _180  and  _181
REMARK   75  A    between atoms: _184  and  _186
REMARK   76  A    between atoms: _186  and  _187
REMARK   77  A    between atoms: _186  and  _189
REMARK   78  A    between atoms: _189  and  _190
REMARK   79  A    between atoms: _193  and  _195
REMARK   80  A    between atoms: _195  and  _196
REMARK   81  A    between atoms: _195  and  _198
REMARK   82  A    between atoms: _198  and  _199
REMARK   83  A    between atoms: _202  and  _204
REMARK   84  A    between atoms: _204  and  _205
REMARK   85  A    between atoms: _208  and  _210
REMARK   86  A    between atoms: _210  and  _211
REMARK   87  A    between atoms: _210  and  _213
REMARK   88  A    between atoms: _213  and  _214
REMARK   89  A    between atoms: _216  and  _218
REMARK   90  A    between atoms: _218  and  _219
REMARK   91  A    between atoms: _218  and  _221
REMARK   92  A    between atoms: _221  and  _222
REMARK   93  A    between atoms: _228  and  _230
REMARK   94  A    between atoms: _230  and  _231
REMARK   95  A    between atoms: _230  and  _233
REMARK   96  A    between atoms: _233  and  _234
REMARK   97  A    between atoms: _236  and  _238
REMARK   98  A    between atoms: _238  and  _239
REMARK   99  A    between atoms: _238  and  _241
REMARK  100  A    between atoms: _241  and  _242
REMARK  101  A    between atoms: _242  and  _243
REMARK  102  A    between atoms: _243  and  _244
REMARK  103  A    between atoms: _253  and  _255
REMARK  104  A    between atoms: _255  and  _256
REMARK  105  A    between atoms: _255  and  _258
REMARK  106  A    between atoms: _258  and  _259
REMARK  107  A    between atoms: _261  and  _263
REMARK  108  A    between atoms: _263  and  _264
REMARK  109  A    between atoms: _263  and  _266
REMARK  110  A    between atoms: _266  and  _267
REMARK  111  A    between atoms: _270  and  _272
REMARK  112  A    between atoms: _272  and  _273
REMARK  113  A    between atoms: _272  and  _275
REMARK  114  A    between atoms: _275  and  _276
REMARK  115  A    between atoms: _279  and  _281
REMARK  116  A    between atoms: _281  and  _282
REMARK  117  A    between atoms: _281  and  _284
REMARK  118  A    between atoms: _284  and  _285
REMARK  119  A    between atoms: _288  and  _290
REMARK  120  A    between atoms: _290  and  _291
REMARK  121  A    between atoms: _294  and  _296
REMARK  122  A    between atoms: _296  and  _297
REMARK  123  A    between atoms: _296  and  _299
REMARK  124  A    between atoms: _299  and  _300
REMARK  125  A    between atoms: _303  and  _305
REMARK  126  A    between atoms: _305  and  _306
REMARK  127  A    between atoms: _308  and  _310
REMARK  128  A    between atoms: _310  and  _311
REMARK  129  A    between atoms: _310  and  _313
REMARK  130  A    between atoms: _313  and  _314
REMARK  131  A    between atoms: _317  and  _319
REMARK  132  A    between atoms: _319  and  _320
REMARK  133  A    between atoms: _319  and  _322
REMARK  134  A    between atoms: _325  and  _327
REMARK  135  A    between atoms: _327  and  _328
REMARK  136  A    between atoms: _327  and  _330
REMARK  137  A    between atoms: _330  and  _331
REMARK  138  A    between atoms: _336  and  _338
REMARK  139  A    between atoms: _338  and  _339
REMARK  140  A    between atoms: _338  and  _341
REMARK  141  A    between atoms: _341  and  _342
REMARK  142  A    between atoms: _342  and  _343
REMARK  143  A    between atoms: _343  and  _344
REMARK  144  A    between atoms: _353  and  _355
REMARK  145  A    between atoms: _355  and  _356
REMARK  146  A    between atoms: _359  and  _361
REMARK  147  A    between atoms: _361  and  _362
REMARK  148  A    between atoms: _361  and  _364
REMARK  149  A    between atoms: _364  and  _365
REMARK  150  A    between atoms: _370  and  _372
REMARK  151  A    between atoms: _372  and  _373
REMARK  152  A    between atoms: _376  and  _378
REMARK  153  A    between atoms: _378  and  _379
REMARK  154  A    between atoms: _381  and  _383
REMARK  155  A    between atoms: _383  and  _384
REMARK  156  A    between atoms: _383  and  _386
REMARK  157  A    between atoms: _389  and  _391
REMARK  158  A    between atoms: _391  and  _392
REMARK  159  A    between atoms: _394  and  _396
REMARK  160  A    between atoms: _396  and  _397
REMARK  161  A    between atoms: _400  and  _402
REMARK  162  A    between atoms: _402  and  _403
REMARK  163  A    between atoms: _402  and  _405
REMARK  164  A    between atoms: _405  and  _406
REMARK  165  A    between atoms: _409  and  _411
REMARK  166  A    between atoms: _411  and  _412
REMARK  167  A    between atoms: _411  and  _414
REMARK  168  A    between atoms: _414  and  _415
REMARK  169  A    between atoms: _421  and  _423
REMARK  170  A    between atoms: _423  and  _424
REMARK  171  A    between atoms: _423  and  _426
REMARK  172  A    between atoms: _426  and  _427
REMARK  173  A    between atoms: _430  and  _432
REMARK  174  A    between atoms: _432  and  _433
REMARK  175  A    between atoms: _432  and  _435
REMARK  176  A    between atoms: _435  and  _436
REMARK  177  A    between atoms: _436  and  _437
REMARK  178  A    between atoms: _437  and  _438
REMARK  179  A    between atoms: _447  and  _449
REMARK  180  A    between atoms: _449  and  _450
REMARK  181  A    between atoms: _449  and  _452
REMARK  182  A    between atoms: _455  and  _457
REMARK  183  A    between atoms: _457  and  _458
REMARK  184  A    between atoms: _457  and  _460
REMARK  185  A    between atoms: _460  and  _461
REMARK  186  A    between atoms: _464  and  _466
REMARK  187  A    between atoms: _466  and  _467
REMARK  188  A    between atoms: _466  and  _469
REMARK  189  A    between atoms: _469  and  _470
REMARK  190  A    between atoms: _470  and  _471
REMARK  191  A    between atoms: _471  and  _472
REMARK  192  A    between atoms: _481  and  _483
REMARK  193  A    between atoms: _483  and  _484
REMARK  194  A    between atoms: _483  and  _486
REMARK  195  A    between atoms: _486  and  _487
REMARK  196  A    between atoms: _490  and  _492
REMARK  197  A    between atoms: _492  and  _493
REMARK  198  A    between atoms: _495  and  _497
REMARK  199  A    between atoms: _497  and  _498
REMARK  200  A    between atoms: _497  and  _500
REMARK  201  A    between atoms: _500  and  _501
REMARK  202  A    between atoms: _504  and  _506
REMARK  203  A    between atoms: _506  and  _507
REMARK  204  A    between atoms: _506  and  _509
REMARK  205  A    between atoms: _509  and  _510
REMARK  206  A    between atoms: _510  and  _511
REMARK  207  A    between atoms: _511  and  _512
REMARK  208  A    between atoms: _512  and  _513
REMARK  209  A    between atoms: _517  and  _519
REMARK  210  A    between atoms: _519  and  _520
REMARK  211  A    between atoms: _519  and  _522
REMARK  212  A    between atoms: _524  and  _526
REMARK  213  A    between atoms: _526  and  _527
REMARK  214  A    between atoms: _526  and  _529
REMARK  215  A    between atoms: _529  and  _530
REMARK  216  A    between atoms: _533  and  _535
REMARK  217  A    between atoms: _535  and  _536
REMARK  218  A    between atoms: _535  and  _538
REMARK  219  A    between atoms: _538  and  _539
REMARK  220  A    between atoms: _539  and  _540
REMARK  221  A    between atoms: _543  and  _545
REMARK  222  A    between atoms: _545  and  _546
REMARK  223  A    between atoms: _545  and  _548
REMARK  224  A    between atoms: _548  and  _549
REMARK  225  A    between atoms: _554  and  _556
REMARK  226  A    between atoms: _556  and  _557
REMARK  227  A    between atoms: _556  and  _559
REMARK  228  A    between atoms: _559  and  _560
REMARK  229  A    between atoms: _563  and  _565
REMARK  230  A    between atoms: _565  and  _566
REMARK  231  A    between atoms: _565  and  _568
REMARK  232  A    between atoms: _568  and  _569
REMARK  233  A    between atoms: _575  and  _577
REMARK  234  A    between atoms: _577  and  _578
REMARK  235  A    between atoms: _577  and  _580
REMARK  236  A    between atoms: _580  and  _581
REMARK  237  A    between atoms: _587  and  _589
REMARK  238  A    between atoms: _589  and  _590
REMARK  239  A    between atoms: _589  and  _592
REMARK  240  A    between atoms: _592  and  _593
REMARK  241  A    between atoms: _596  and  _598
REMARK  242  A    between atoms: _598  and  _599
REMARK  243  A    between atoms: _598  and  _601
REMARK  244  A    between atoms: _601  and  _602
REMARK  245  A    between atoms: _605  and  _607
REMARK  246  A    between atoms: _607  and  _608
REMARK  247  A    between atoms: _607  and  _610
REMARK  248  A    between atoms: _610  and  _611
REMARK                            x       y       z     vdW  Elec       q    Type
REMARK                         _______ _______ _______ _____ _____    ______ ____
ROOT
ATOM      1  C   LEU A   3      54.389  44.577  32.613  0.00  0.00    +0.241 C 
ATOM      2  O   LEU A   3      53.375  44.218  33.211  0.00  0.00    -0.273 OA
ATOM      3  N   ALA A   4      54.427  44.754  31.298  0.00  0.00    -0.297 N 
ATOM      4  H   ALA A   4      55.317  45.053  30.851  0.00  0.00    +0.150 HD
ENDROOT
BRANCH   3   5
ATOM      5  CA  ALA A   4      53.248  44.539  30.464  0.00  0.00    +0.149 C 
ATOM      6  CB  ALA A   4      53.570  44.883  29.021  0.00  0.00    +0.031 C 
BRANCH   5   7
ATOM      7  C   ALA A   4      52.743  43.104  30.546  0.00  0.00    +0.241 C 
ATOM      8  N   THR A   5      53.643  42.184  30.866  0.00  0.00    -0.295 N 
ATOM      9  H   THR A   5      54.624  42.472  31.056  0.00  0.00    +0.150 HD
ATOM     10  O   ALA A   4      51.563  42.838  30.314  0.00  0.00    -0.273 OA
BRANCH   8  11
ATOM     11  CA  THR A   5      53.281  40.780  30.956  0.00  0.00    +0.176 C 
BRANCH  11  12
ATOM     12  C   THR A   5      52.445  40.488  32.198  0.00  0.00    +0.243 C 
ATOM     13  N   GLY A   6      52.272  41.504  33.036  0.00  0.00    -0.295 N 
ATOM     14  H   GLY A   6      52.689  42.432  32.819  0.00  0.00    +0.150 HD
ATOM     15  O   THR A   5      51.992  39.368  32.394  0.00  0.00    -0.273 OA
BRANCH  13  16
ATOM     16  CA  GLY A   6      51.503  41.323  34.254  0.00  0.00    +0.176 C 
BRANCH  16  17
ATOM     17  C   GLY A   6      52.361  40.947  35.450  0.00  0.00    +0.243 C 
ATOM     18  O   GLY A   6      51.839  40.637  36.522  0.00  0.00    -0.273 OA
ATOM     19  N   LEU A   7      53.710  40.886  35.365  0.00  0.00    -0.298 N 
ATOM     20  H   LEU A   7      54.125  41.089  34.433  0.00  0.00    +0.150 HD
BRANCH  19  21
ATOM     21  CA  LEU A   7      54.645  40.567  36.438  0.00  0.00    +0.137 C 
BRANCH  21  22
ATOM     22  C   LEU A   7      55.203  41.836  37.084  0.00  0.00    +0.227 C 
ATOM     23  O   LEU A   7      55.361  42.874  36.441  0.00  0.00    -0.286 OA
ENDBRANCH  21  22
BRANCH  21  24
ATOM     24  CB  LEU A   7      55.789  39.688  35.910  0.00  0.00    +0.028 C 
BRANCH  24  25
ATOM     25  CG  LEU A   7      55.452  38.278  35.403  0.00  0.00    +0.002 C 
ATOM     26  CD2 LEU A   7      54.925  37.430  36.558  0.00  0.00    +0.000 C 
ATOM     27  CD1 LEU A   7      56.670  37.615  34.788  0.00  0.00    +0.000 C 
ENDBRANCH  24  25
ENDBRANCH  21  24
ENDBRANCH  19  21
ENDBRANCH  16  17
ENDBRANCH  13  16
ENDBRANCH  11  12
BRANCH  11  28
ATOM     28  CB  THR A   5      54.530  39.901  31.007  0.00  0.00    +0.137 C 
ATOM     29  CG2 THR A   5      55.272  39.928  29.669  0.00  0.00    +0.034 C 
BRANCH  28  30
ATOM     30  OG1 THR A   5      55.385  40.384  32.052  0.00  0.00    -0.382 OA
ATOM     31  HG1 THR A   5      56.199  39.823  32.096  0.00  0.00    +0.210 HD
ENDBRANCH  28  30
ENDBRANCH  11  28
ENDBRANCH   8  11
ENDBRANCH   5   7
ENDBRANCH   3   5
BRANCH   1  32
ATOM     32  CA  LEU A   3      55.682  44.833  33.362  0.00  0.00    +0.149 C 
BRANCH  32  34
ATOM     33  C   LEU A   2      55.077  46.399  35.127  0.00  0.00    +0.241 C 
ATOM     34  N   LEU A   3      55.395  45.152  34.748  0.00  0.00    -0.297 N 
ATOM     35  H   LEU A   3      55.437  44.398  35.463  0.00  0.00    +0.150 HD
ATOM     36  O   LEU A   2      55.083  47.340  34.335  0.00  0.00    -0.273 OA
BRANCH  33  37
ATOM     37  CA  LEU A   2      54.793  46.627  36.609  0.00  0.00    +0.149 C 
BRANCH  37  40
ATOM     38  C   ILE A   1      56.770  47.240  37.776  0.00  0.00    +0.238 C 
ATOM     39  O   ILE A   1      56.912  46.165  38.028  0.00  0.00    -0.274 OA
ATOM     40  N   LEU A   2      55.755  47.593  37.118  0.00  0.00    -0.297 N 
ATOM     41  H   LEU A   2      55.600  48.605  36.933  0.00  0.00    +0.150 HD
BRANCH  38  42
ATOM     42  CA  ILE A   1      57.759  48.302  38.336  0.00  0.00    +0.145 C 
BRANCH  42  43
ATOM     43  N   ILE A   1      58.298  47.976  39.618  0.00  0.00    -0.238 NA
ATOM     44  H   ILE A   1      58.752  47.050  39.752  0.00  0.00    +0.142 HD
ENDBRANCH  42  43
BRANCH  42  45
ATOM     45  CB  ILE A   1      58.811  48.728  37.288  0.00  0.00    +0.025 C 
ATOM     46  CG2 ILE A   1      59.866  49.329  37.744  0.00  0.00    +0.002 C 
BRANCH  45  47
ATOM     47  CG1 ILE A   1      59.501  47.625  36.812  0.00  0.00    +0.002 C 
ATOM     48  CD1 ILE A   1      59.790  47.702  35.589  0.00  0.00    +0.000 C 
ENDBRANCH  45  47
ENDBRANCH  42  45
ENDBRANCH  38  42
ENDBRANCH  37  40
BRANCH  37  49
ATOM     49  CB  LEU A   2      53.360  47.139  36.803  0.00  0.00    +0.029 C 
BRANCH  49  50
ATOM     50  CG  LEU A   2      52.241  46.284  36.193  0.00  0.00    +0.002 C 
ATOM     51  CD2 LEU A   2      52.222  44.888  36.811  0.00  0.00    +0.000 C 
ATOM     52  CD1 LEU A   2      50.903  46.970  36.411  0.00  0.00    +0.000 C 
ENDBRANCH  49  50
ENDBRANCH  37  49
ENDBRANCH  33  37
ENDBRANCH  32  34
BRANCH  32  53
ATOM     53  CB  LEU A   3      56.595  43.605  33.272  0.00  0.00    +0.029 C 
BRANCH  53  54
ATOM     54  CG  LEU A   3      57.831  43.597  34.184  0.00  0.00    +0.002 C 
ATOM     55  CD2 LEU A   3      58.650  44.884  33.995  0.00  0.00    +0.000 C 
ATOM     56  CD1 LEU A   3      58.668  42.359  33.872  0.00  0.00    +0.000 C 
ENDBRANCH  53  54
ENDBRANCH  32  53
ENDBRANCH   1  32
TORSDOF 24
REMARK  Name = ../refined-set-2016/4pp3/4pp3_pocket.pdb
REMARK  248 active torsions:
REMARK  status: ('A' for Active; 'I' for Inactive)
REMARK    1  A    between atoms: _1  and  _3
REMARK    2  A    between atoms: _3  and  _4
REMARK    3  A    between atoms: _3  and  _6
REMARK    4  A    between atoms: _6  and  _7
REMARK    5  A    between atoms: _7  and  _8
REMARK    6  A    between atoms: _12  and  _13
REMARK    7  A    between atoms: _18  and  _20
REMARK    8  A    between atoms: _20  and  _21
REMARK    9  A    between atoms: _20  and  _23
REMARK   10  A    between atoms: _26  and  _28
REMARK   11  A    between atoms: _28  and  _29
REMARK   12  A    between atoms: _28  and  _31
REMARK   13  A    between atoms: _31  and  _32
REMARK   14  A    between atoms: _35  and  _37
REMARK   15  A    between atoms: _37  and  _38
REMARK   16  A    between atoms: _37  and  _40
REMARK   17  A    between atoms: _40  and  _41
REMARK   18  A    between atoms: _46  and  _48
REMARK   19  A    between atoms: _48  and  _49
REMARK   20  A    between atoms: _48  and  _51
REMARK   21  A    between atoms: _51  and  _52
REMARK   22  A    between atoms: _55  and  _57
REMARK   23  A    between atoms: _57  and  _58
REMARK   24  A    between atoms: _57  and  _60
REMARK   25  A    between atoms: _62  and  _64
REMARK   26  A    between atoms: _64  and  _65
REMARK   27  A    between atoms: _64  and  _67
REMARK   28  A    between atoms: _67  and  _68
REMARK   29  A    between atoms: _68  and  _69
REMARK   30  A    between atoms: _74  and  _76
REMARK   31  A    between atoms: _76  and  _77
REMARK   32  A    between atoms: _80  and  _82
REMARK   33  A    between atoms: _82  and  _83
REMARK   34  A    between atoms: _86  and  _88
REMARK   35  A    between atoms: _88  and  _89
REMARK   36  A    between atoms: _88  and  _91
REMARK   37  A    between atoms: _91  and  _92
REMARK   38  A    between atoms: _95  and  _97
REMARK   39  A    between atoms: _97  and  _98
REMARK   40  A    between atoms: _97  and  _100
REMARK   41  A    between atoms: _100  and  _101
REMARK   42  A    between atoms: _101  and  _102
REMARK   43  A    between atoms: _102  and  _103
REMARK   44  A    between atoms: _103  and  _104
REMARK   45  A    between atoms: _108  and  _110
REMARK   46  A    between atoms: _110  and  _111
REMARK   47  A    between atoms: _110  and  _113
REMARK   48  A    between atoms: _113  and  _114
REMARK   49  A    between atoms: _114  and  _115
REMARK   50  A    between atoms: _120  and  _122
REMARK   51  A    between atoms: _122  and  _123
REMARK   52  A    between atoms: _122  and  _125
REMARK   53  A    between atoms: _125  and  _126
REMARK   54  A    between atoms: _129  and  _131
REMARK   55  A    between atoms: _131  and  _132
REMARK   56  A    between atoms: _131  and  _134
REMARK   57  A    between atoms: _134  and  _135
REMARK   58  A    between atoms: _138  and  _140
REMARK   59  A    between atoms: _140  and  _141
REMARK   60  A    between atoms: _140  and  _143
REMARK   61  A    between atoms: _143  and  _144
REMARK   62  A    between atoms: _154  and  _156
REMARK   63  A    between atoms: _156  and  _157
REMARK   64  A    between atoms: _156  and  _159
REMARK   65  A    between atoms: _159  and  _160
REMARK   66  A    between atoms: _165  and  _167
REMARK   67  A    between atoms: _167  and  _168
REMARK   68  A    between atoms: _167  and  _170
REMARK   69  A    between atoms: _170  and  _171
REMARK   70  A    between atoms: _171  and  _172
REMARK   71  A    between atoms: _175  and  _177
REMARK   72  A    between atoms: _177  and  _178
REMARK   73  A    between atoms: _177  and  _180
REMARK   74  A    between atoms: _180  and  _181
REMARK   75  A    between atoms: _184  and  _186
REMARK   76  A    between atoms: _186  and  _187
REMARK   77  A    between atoms: _186  and  _189
REMARK   78  A    between atoms: _189  and  _190
REMARK   79  A    between atoms: _193  and  _195
REMARK   80  A    between atoms: _195  and  _196
REMARK   81  A    between atoms: _195  and  _198
REMARK   82  A    between atoms: _198  and  _199
REMARK   83  A    between atoms: _202  and  _204
REMARK   84  A    between atoms: _204  and  _205
REMARK   85  A    between atoms: _208  and  _210
REMARK   86  A    between atoms: _210  and  _211
REMARK   87  A    between atoms: _210  and  _213
REMARK   88  A    between atoms: _213  and  _214
REMARK   89  A    between atoms: _216  and  _218
REMARK   90  A    between atoms: _218  and  _219
REMARK   91  A    between atoms: _218  and  _221
REMARK   92  A    between atoms: _221  and  _222
REMARK   93  A    between atoms: _228  and  _230
REMARK   94  A    between atoms: _230  and  _231
REMARK   95  A    between atoms: _230  and  _233
REMARK   96  A    between atoms: _233  and  _234
REMARK   97  A    between atoms: _236  and  _238
REMARK   98  A    between atoms: _238  and  _239
REMARK   99  A    between atoms: _238  and  _241
REMARK  100  A    between atoms: _241  and  _242
REMARK  101  A    between atoms: _242  and  _243
REMARK  102  A    between atoms: _243  and  _244
REMARK  103  A    between atoms: _253  and  _255
REMARK  104  A    between atoms: _255  and  _256
REMARK  105  A    between atoms: _255  and  _258
REMARK  106  A    between atoms: _258  and  _259
REMARK  107  A    between atoms: _261  and  _263
REMARK  108  A    between atoms: _263  and  _264
REMARK  109  A    between atoms: _263  and  _266
REMARK  110  A    between atoms: _266  and  _267
REMARK  111  A    between atoms: _270  and  _272
REMARK  112  A    between atoms: _272  and  _273
REMARK  113  A    between atoms: _272  and  _275
REMARK  114  A    between atoms: _275  and  _276
REMARK  115  A    between atoms: _279  and  _281
REMARK  116  A    between atoms: _281  and  _282
REMARK  117  A    between atoms: _281  and  _284
REMARK  118  A    between atoms: _284  and  _285
REMARK  119  A    between atoms: _288  and  _290
REMARK  120  A    between atoms: _290  and  _291
REMARK  121  A    between atoms: _294  and  _296
REMARK  122  A    between atoms: _296  and  _297
REMARK  123  A    between atoms: _296  and  _299
REMARK  124  A    between atoms: _299  and  _300
REMARK  125  A    between atoms: _303  and  _305
REMARK  126  A    between atoms: _305  and  _306
REMARK  127  A    between atoms: _308  and  _310
REMARK  128  A    between atoms: _310  and  _311
REMARK  129  A    between atoms: _310  and  _313
REMARK  130  A    between atoms: _313  and  _314
REMARK  131  A    between atoms: _317  and  _319
REMARK  132  A    between atoms: _319  and  _320
REMARK  133  A    between atoms: _319  and  _322
REMARK  134  A    between atoms: _325  and  _327
REMARK  135  A    between atoms: _327  and  _328
REMARK  136  A    between atoms: _327  and  _330
REMARK  137  A    between atoms: _330  and  _331
REMARK  138  A    between atoms: _336  and  _338
REMARK  139  A    between atoms: _338  and  _339
REMARK  140  A    between atoms: _338  and  _341
REMARK  141  A    between atoms: _341  and  _342
REMARK  142  A    between atoms: _342  and  _343
REMARK  143  A    between atoms: _343  and  _344
REMARK  144  A    between atoms: _353  and  _355
REMARK  145  A    between atoms: _355  and  _356
REMARK  146  A    between atoms: _359  and  _361
REMARK  147  A    between atoms: _361  and  _362
REMARK  148  A    between atoms: _361  and  _364
REMARK  149  A    between atoms: _364  and  _365
REMARK  150  A    between atoms: _370  and  _372
REMARK  151  A    between atoms: _372  and  _373
REMARK  152  A    between atoms: _376  and  _378
REMARK  153  A    between atoms: _378  and  _379
REMARK  154  A    between atoms: _381  and  _383
REMARK  155  A    between atoms: _383  and  _384
REMARK  156  A    between atoms: _383  and  _386
REMARK  157  A    between atoms: _389  and  _391
REMARK  158  A    between atoms: _391  and  _392
REMARK  159  A    between atoms: _394  and  _396
REMARK  160  A    between atoms: _396  and  _397
REMARK  161  A    between atoms: _400  and  _402
REMARK  162  A    between atoms: _402  and  _403
REMARK  163  A    between atoms: _402  and  _405
REMARK  164  A    between atoms: _405  and  _406
REMARK  165  A    between atoms: _409  and  _411
REMARK  166  A    between atoms: _411  and  _412
REMARK  167  A    between atoms: _411  and  _414
REMARK  168  A    between atoms: _414  and  _415
REMARK  169  A    between atoms: _421  and  _423
REMARK  170  A    between atoms: _423  and  _424
REMARK  171  A    between atoms: _423  and  _426
REMARK  172  A    between atoms: _426  and  _427
REMARK  173  A    between atoms: _430  and  _432
REMARK  174  A    between atoms: _432  and  _433
REMARK  175  A    between atoms: _432  and  _435
REMARK  176  A    between atoms: _435  and  _436
REMARK  177  A    between atoms: _436  and  _437
REMARK  178  A    between atoms: _437  and  _438
REMARK  179  A    between atoms: _447  and  _449
REMARK  180  A    between atoms: _449  and  _450
REMARK  181  A    between atoms: _449  and  _452
REMARK  182  A    between atoms: _455  and  _457
REMARK  183  A    between atoms: _457  and  _458
REMARK  184  A    between atoms: _457  and  _460
REMARK  185  A    between atoms: _460  and  _461
REMARK  186  A    between atoms: _464  and  _466
REMARK  187  A    between atoms: _466  and  _467
REMARK  188  A    between atoms: _466  and  _469
REMARK  189  A    between atoms: _469  and  _470
REMARK  190  A    between atoms: _470  and  _471
REMARK  191  A    between atoms: _471  and  _472
REMARK  192  A    between atoms: _481  and  _483
REMARK  193  A    between atoms: _483  and  _484
REMARK  194  A    between atoms: _483  and  _486
REMARK  195  A    between atoms: _486  and  _487
REMARK  196  A    between atoms: _490  and  _492
REMARK  197  A    between atoms: _492  and  _493
REMARK  198  A    between atoms: _495  and  _497
REMARK  199  A    between atoms: _497  and  _498
REMARK  200  A    between atoms: _497  and  _500
REMARK  201  A    between atoms: _500  and  _501
REMARK  202  A    between atoms: _504  and  _506
REMARK  203  A    between atoms: _506  and  _507
REMARK  204  A    between atoms: _506  and  _509
REMARK  205  A    between atoms: _509  and  _510
REMARK  206  A    between atoms: _510  and  _511
REMARK  207  A    between atoms: _511  and  _512
REMARK  208  A    between atoms: _512  and  _513
REMARK  209  A    between atoms: _517  and  _519
REMARK  210  A    between atoms: _519  and  _520
REMARK  211  A    between atoms: _519  and  _522
REMARK  212  A    between atoms: _524  and  _526
REMARK  213  A    between atoms: _526  and  _527
REMARK  214  A    between atoms: _526  and  _529
REMARK  215  A    between atoms: _529  and  _530
REMARK  216  A    between atoms: _533  and  _535
REMARK  217  A    between atoms: _535  and  _536
REMARK  218  A    between atoms: _535  and  _538
REMARK  219  A    between atoms: _538  and  _539
REMARK  220  A    between atoms: _539  and  _540
REMARK  221  A    between atoms: _543  and  _545
REMARK  222  A    between atoms: _545  and  _546
REMARK  223  A    between atoms: _545  and  _548
REMARK  224  A    between atoms: _548  and  _549
REMARK  225  A    between atoms: _554  and  _556
REMARK  226  A    between atoms: _556  and  _557
REMARK  227  A    between atoms: _556  and  _559
REMARK  228  A    between atoms: _559  and  _560
REMARK  229  A    between atoms: _563  and  _565
REMARK  230  A    between atoms: _565  and  _566
REMARK  231  A    between atoms: _565  and  _568
REMARK  232  A    between atoms: _568  and  _569
REMARK  233  A    between atoms: _575  and  _577
REMARK  234  A    between atoms: _577  and  _578
REMARK  235  A    between atoms: _577  and  _580
REMARK  236  A    between atoms: _580  and  _581
REMARK  237  A    between atoms: _587  and  _589
REMARK  238  A    between atoms: _589  and  _590
REMARK  239  A    between atoms: _589  and  _592
REMARK  240  A    between atoms: _592  and  _593
REMARK  241  A    between atoms: _596  and  _598
REMARK  242  A    between atoms: _598  and  _599
REMARK  243  A    between atoms: _598  and  _601
REMARK  244  A    between atoms: _601  and  _602
REMARK  245  A    between atoms: _605  and  _607
REMARK  246  A    between atoms: _607  and  _608
REMARK  247  A    between atoms: _607  and  _610
REMARK  248  A    between atoms: _610  and  _611
REMARK                            x       y       z     vdW  Elec       q    Type
REMARK                         _______ _______ _______ _____ _____    ______ ____
ROOT
ATOM      1  C   HIS A   2      61.824  45.148  43.274  0.00  0.00    +0.241 C 
ATOM      2  N   ARG A   3      62.036  46.265  43.962  0.00  0.00    -0.298 N 
ATOM      3  H   ARG A   3      61.231  46.738  44.420  0.00  0.00    +0.150 HD
ATOM      4  O   HIS A   2      62.723  44.530  42.704  0.00  0.00    -0.273 OA
ENDROOT
BRANCH   1   5
ATOM      5  CA  HIS A   2      60.382  44.652  43.222  0.00  0.00    +0.155 C 
BRANCH   5   7
ATOM      6  C   VAL A   1      60.036  44.565  40.813  0.00  0.00    +0.238 C 
ATOM      7  N   HIS A   2      60.115  43.935  41.981  0.00  0.00    -0.297 N 
ATOM      8  H   HIS A   2      59.983  42.904  42.010  0.00  0.00    +0.150 HD
ATOM      9  O   VAL A   1      60.183  45.782  40.697  0.00  0.00    -0.274 OA
BRANCH   6  10
ATOM     10  CA  VAL A   1      59.749  43.693  39.596  0.00  0.00    +0.145 C 
BRANCH  10  11
ATOM     11  CB  VAL A   1      60.649  44.142  38.430  0.00  0.00    +0.025 C 
ATOM     12  CG2 VAL A   1      62.110  44.127  38.853  0.00  0.00    +0.002 C 
ATOM     13  CG1 VAL A   1      60.429  43.252  37.217  0.00  0.00    +0.002 C 
ENDBRANCH  10  11
BRANCH  10  14
ATOM     14  N   VAL A   1      58.338  43.746  39.232  0.00  0.00    -0.238 NA
ATOM     15  H   VAL A   1      57.967  44.597  38.764  0.00  0.00    +0.142 HD
ENDBRANCH  10  14
ENDBRANCH   6  10
ENDBRANCH   5   7
BRANCH   5  16
ATOM     16  CB  HIS A   2      60.089  43.760  44.430  0.00  0.00    +0.076 C 
BRANCH  16  17
ATOM     17  CG  HIS A   2      60.098  44.490  45.737  0.00  0.00    +0.082 A 
ATOM     18  CD2 HIS A   2      59.096  44.797  46.594  0.00  0.00    +0.115 A 
ATOM     19  NE2 HIS A   2      59.657  45.479  47.646  0.00  0.00    -0.221 NA
ATOM     20  CE1 HIS A   2      60.957  45.589  47.442  0.00  0.00    +0.199 A 
ATOM     21  ND1 HIS A   2      61.250  45.000  46.296  0.00  0.00    -0.227 NA
ENDBRANCH  16  17
ENDBRANCH   5  16
ENDBRANCH   1   5
BRANCH   2  22
ATOM     22  CA  ARG A   3      63.367  46.844  44.091  0.00  0.00    +0.137 C 
BRANCH  22  23
ATOM     23  C   ARG A   3      64.387  45.791  44.512  0.00  0.00    +0.227 C 
ATOM     24  O   ARG A   3      65.448  45.662  43.901  0.00  0.00    -0.286 OA
ENDBRANCH  22  23
BRANCH  22  25
ATOM     25  CB  ARG A   3      63.355  47.996  45.099  0.00  0.00    +0.031 C 
BRANCH  25  26
ATOM     26  CG  ARG A   3      64.608  48.856  45.074  0.00  0.00    +0.045 C 
BRANCH  26  27
ATOM     27  CD  ARG A   3      64.493  50.025  46.038  0.00  0.00    +0.174 C 
BRANCH  27  28
ATOM     28  NE  ARG A   3      65.724  50.809  46.096  0.00  0.00    -0.265 N 
ATOM     29  CZ  ARG A   3      66.632  50.703  47.061  0.00  0.00    +0.342 C 
ATOM     30  NH2 ARG A   3      66.450  49.843  48.054  0.00  0.00    -0.292 N 
ATOM     31 HH21 ARG A   3      67.161  49.761  48.808  0.00  0.00    +0.255 HD
ATOM     32 HH22 ARG A   3      65.596  49.250  48.079  0.00  0.00    +0.255 HD
ATOM     33  NH1 ARG A   3      67.723  51.456  47.033  0.00  0.00    -0.292 N 
ATOM     34 HH11 ARG A   3      68.432  51.372  47.789  0.00  0.00    +0.255 HD
ATOM     35 HH12 ARG A   3      67.869  52.131  46.255  0.00  0.00    +0.255 HD
ATOM     36  HE  ARG A   3      65.901  51.494  45.334  0.00  0.00    +0.259 HD
ENDBRANCH  27  28
ENDBRANCH  26  27
ENDBRANCH  25  26
ENDBRANCH  22  25
ENDBRANCH   2  22
TORSDOF 13
REMARK  Name = ../refined-set-2016/4pp3/4pp3_pocket.pdb
REMARK  248 active torsions:
REMARK  status: ('A' for Active; 'I' for Inactive)
REMARK    1  A    between atoms: _1  and  _3
REMARK    2  A    between atoms: _3  and  _4
REMARK    3  A    between atoms: _3  and  _6
REMARK    4  A    between atoms: _6  and  _7
REMARK    5  A    between atoms: _7  and  _8
REMARK    6  A    between atoms: _12  and  _13
REMARK    7  A    between atoms: _18  and  _20
REMARK    8  A    between atoms: _20  and  _21
REMARK    9  A    between atoms: _20  and  _23
REMARK   10  A    between atoms: _26  and  _28
REMARK   11  A    between atoms: _28  and  _29
REMARK   12  A    between atoms: _28  and  _31
REMARK   13  A    between atoms: _31  and  _32
REMARK   14  A    between atoms: _35  and  _37
REMARK   15  A    between atoms: _37  and  _38
REMARK   16  A    between atoms: _37  and  _40
REMARK   17  A    between atoms: _40  and  _41
REMARK   18  A    between atoms: _46  and  _48
REMARK   19  A    between atoms: _48  and  _49
REMARK   20  A    between atoms: _48  and  _51
REMARK   21  A    between atoms: _51  and  _52
REMARK   22  A    between atoms: _55  and  _57
REMARK   23  A    between atoms: _57  and  _58
REMARK   24  A    between atoms: _57  and  _60
REMARK   25  A    between atoms: _62  and  _64
REMARK   26  A    between atoms: _64  and  _65
REMARK   27  A    between atoms: _64  and  _67
REMARK   28  A    between atoms: _67  and  _68
REMARK   29  A    between atoms: _68  and  _69
REMARK   30  A    between atoms: _74  and  _76
REMARK   31  A    between atoms: _76  and  _77
REMARK   32  A    between atoms: _80  and  _82
REMARK   33  A    between atoms: _82  and  _83
REMARK   34  A    between atoms: _86  and  _88
REMARK   35  A    between atoms: _88  and  _89
REMARK   36  A    between atoms: _88  and  _91
REMARK   37  A    between atoms: _91  and  _92
REMARK   38  A    between atoms: _95  and  _97
REMARK   39  A    between atoms: _97  and  _98
REMARK   40  A    between atoms: _97  and  _100
REMARK   41  A    between atoms: _100  and  _101
REMARK   42  A    between atoms: _101  and  _102
REMARK   43  A    between atoms: _102  and  _103
REMARK   44  A    between atoms: _103  and  _104
REMARK   45  A    between atoms: _108  and  _110
REMARK   46  A    between atoms: _110  and  _111
REMARK   47  A    between atoms: _110  and  _113
REMARK   48  A    between atoms: _113  and  _114
REMARK   49  A    between atoms: _114  and  _115
REMARK   50  A    between atoms: _120  and  _122
REMARK   51  A    between atoms: _122  and  _123
REMARK   52  A    between atoms: _122  and  _125
REMARK   53  A    between atoms: _125  and  _126
REMARK   54  A    between atoms: _129  and  _131
REMARK   55  A    between atoms: _131  and  _132
REMARK   56  A    between atoms: _131  and  _134
REMARK   57  A    between atoms: _134  and  _135
REMARK   58  A    between atoms: _138  and  _140
REMARK   59  A    between atoms: _140  and  _141
REMARK   60  A    between atoms: _140  and  _143
REMARK   61  A    between atoms: _143  and  _144
REMARK   62  A    between atoms: _154  and  _156
REMARK   63  A    between atoms: _156  and  _157
REMARK   64  A    between atoms: _156  and  _159
REMARK   65  A    between atoms: _159  and  _160
REMARK   66  A    between atoms: _165  and  _167
REMARK   67  A    between atoms: _167  and  _168
REMARK   68  A    between atoms: _167  and  _170
REMARK   69  A    between atoms: _170  and  _171
REMARK   70  A    between atoms: _171  and  _172
REMARK   71  A    between atoms: _175  and  _177
REMARK   72  A    between atoms: _177  and  _178
REMARK   73  A    between atoms: _177  and  _180
REMARK   74  A    between atoms: _180  and  _181
REMARK   75  A    between atoms: _184  and  _186
REMARK   76  A    between atoms: _186  and  _187
REMARK   77  A    between atoms: _186  and  _189
REMARK   78  A    between atoms: _189  and  _190
REMARK   79  A    between atoms: _193  and  _195
REMARK   80  A    between atoms: _195  and  _196
REMARK   81  A    between atoms: _195  and  _198
REMARK   82  A    between atoms: _198  and  _199
REMARK   83  A    between atoms: _202  and  _204
REMARK   84  A    between atoms: _204  and  _205
REMARK   85  A    between atoms: _208  and  _210
REMARK   86  A    between atoms: _210  and  _211
REMARK   87  A    between atoms: _210  and  _213
REMARK   88  A    between atoms: _213  and  _214
REMARK   89  A    between atoms: _216  and  _218
REMARK   90  A    between atoms: _218  and  _219
REMARK   91  A    between atoms: _218  and  _221
REMARK   92  A    between atoms: _221  and  _222
REMARK   93  A    between atoms: _228  and  _230
REMARK   94  A    between atoms: _230  and  _231
REMARK   95  A    between atoms: _230  and  _233
REMARK   96  A    between atoms: _233  and  _234
REMARK   97  A    between atoms: _236  and  _238
REMARK   98  A    between atoms: _238  and  _239
REMARK   99  A    between atoms: _238  and  _241
REMARK  100  A    between atoms: _241  and  _242
REMARK  101  A    between atoms: _242  and  _243
REMARK  102  A    between atoms: _243  and  _244
REMARK  103  A    between atoms: _253  and  _255
REMARK  104  A    between atoms: _255  and  _256
REMARK  105  A    between atoms: _255  and  _258
REMARK  106  A    between atoms: _258  and  _259
REMARK  107  A    between atoms: _261  and  _263
REMARK  108  A    between atoms: _263  and  _264
REMARK  109  A    between atoms: _263  and  _266
REMARK  110  A    between atoms: _266  and  _267
REMARK  111  A    between atoms: _270  and  _272
REMARK  112  A    between atoms: _272  and  _273
REMARK  113  A    between atoms: _272  and  _275
REMARK  114  A    between atoms: _275  and  _276
REMARK  115  A    between atoms: _279  and  _281
REMARK  116  A    between atoms: _281  and  _282
REMARK  117  A    between atoms: _281  and  _284
REMARK  118  A    between atoms: _284  and  _285
REMARK  119  A    between atoms: _288  and  _290
REMARK  120  A    between atoms: _290  and  _291
REMARK  121  A    between atoms: _294  and  _296
REMARK  122  A    between atoms: _296  and  _297
REMARK  123  A    between atoms: _296  and  _299
REMARK  124  A    between atoms: _299  and  _300
REMARK  125  A    between atoms: _303  and  _305
REMARK  126  A    between atoms: _305  and  _306
REMARK  127  A    between atoms: _308  and  _310
REMARK  128  A    between atoms: _310  and  _311
REMARK  129  A    between atoms: _310  and  _313
REMARK  130  A    between atoms: _313  and  _314
REMARK  131  A    between atoms: _317  and  _319
REMARK  132  A    between atoms: _319  and  _320
REMARK  133  A    between atoms: _319  and  _322
REMARK  134  A    between atoms: _325  and  _327
REMARK  135  A    between atoms: _327  and  _328
REMARK  136  A    between atoms: _327  and  _330
REMARK  137  A    between atoms: _330  and  _331
REMARK  138  A    between atoms: _336  and  _338
REMARK  139  A    between atoms: _338  and  _339
REMARK  140  A    between atoms: _338  and  _341
REMARK  141  A    between atoms: _341  and  _342
REMARK  142  A    between atoms: _342  and  _343
REMARK  143  A    between atoms: _343  and  _344
REMARK  144  A    between atoms: _353  and  _355
REMARK  145  A    between atoms: _355  and  _356
REMARK  146  A    between atoms: _359  and  _361
REMARK  147  A    between atoms: _361  and  _362
REMARK  148  A    between atoms: _361  and  _364
REMARK  149  A    between atoms: _364  and  _365
REMARK  150  A    between atoms: _370  and  _372
REMARK  151  A    between atoms: _372  and  _373
REMARK  152  A    between atoms: _376  and  _378
REMARK  153  A    between atoms: _378  and  _379
REMARK  154  A    between atoms: _381  and  _383
REMARK  155  A    between atoms: _383  and  _384
REMARK  156  A    between atoms: _383  and  _386
REMARK  157  A    between atoms: _389  and  _391
REMARK  158  A    between atoms: _391  and  _392
REMARK  159  A    between atoms: _394  and  _396
REMARK  160  A    between atoms: _396  and  _397
REMARK  161  A    between atoms: _400  and  _402
REMARK  162  A    between atoms: _402  and  _403
REMARK  163  A    between atoms: _402  and  _405
REMARK  164  A    between atoms: _405  and  _406
REMARK  165  A    between atoms: _409  and  _411
REMARK  166  A    between atoms: _411  and  _412
REMARK  167  A    between atoms: _411  and  _414
REMARK  168  A    between atoms: _414  and  _415
REMARK  169  A    between atoms: _421  and  _423
REMARK  170  A    between atoms: _423  and  _424
REMARK  171  A    between atoms: _423  and  _426
REMARK  172  A    between atoms: _426  and  _427
REMARK  173  A    between atoms: _430  and  _432
REMARK  174  A    between atoms: _432  and  _433
REMARK  175  A    between atoms: _432  and  _435
REMARK  176  A    between atoms: _435  and  _436
REMARK  177  A    between atoms: _436  and  _437
REMARK  178  A    between atoms: _437  and  _438
REMARK  179  A    between atoms: _447  and  _449
REMARK  180  A    between atoms: _449  and  _450
REMARK  181  A    between atoms: _449  and  _452
REMARK  182  A    between atoms: _455  and  _457
REMARK  183  A    between atoms: _457  and  _458
REMARK  184  A    between atoms: _457  and  _460
REMARK  185  A    between atoms: _460  and  _461
REMARK  186  A    between atoms: _464  and  _466
REMARK  187  A    between atoms: _466  and  _467
REMARK  188  A    between atoms: _466  and  _469
REMARK  189  A    between atoms: _469  and  _470
REMARK  190  A    between atoms: _470  and  _471
REMARK  191  A    between atoms: _471  and  _472
REMARK  192  A    between atoms: _481  and  _483
REMARK  193  A    between atoms: _483  and  _484
REMARK  194  A    between atoms: _483  and  _486
REMARK  195  A    between atoms: _486  and  _487
REMARK  196  A    between atoms: _490  and  _492
REMARK  197  A    between atoms: _492  and  _493
REMARK  198  A    between atoms: _495  and  _497
REMARK  199  A    between atoms: _497  and  _498
REMARK  200  A    between atoms: _497  and  _500
REMARK  201  A    between atoms: _500  and  _501
REMARK  202  A    between atoms: _504  and  _506
REMARK  203  A    between atoms: _506  and  _507
REMARK  204  A    between atoms: _506  and  _509
REMARK  205  A    between atoms: _509  and  _510
REMARK  206  A    between atoms: _510  and  _511
REMARK  207  A    between atoms: _511  and  _512
REMARK  208  A    between atoms: _512  and  _513
REMARK  209  A    between atoms: _517  and  _519
REMARK  210  A    between atoms: _519  and  _520
REMARK  211  A    between atoms: _519  and  _522
REMARK  212  A    between atoms: _524  and  _526
REMARK  213  A    between atoms: _526  and  _527
REMARK  214  A    between atoms: _526  and  _529
REMARK  215  A    between atoms: _529  and  _530
REMARK  216  A    between atoms: _533  and  _535
REMARK  217  A    between atoms: _535  and  _536
REMARK  218  A    between atoms: _535  and  _538
REMARK  219  A    between atoms: _538  and  _539
REMARK  220  A    between atoms: _539  and  _540
REMARK  221  A    between atoms: _543  and  _545
REMARK  222  A    between atoms: _545  and  _546
REMARK  223  A    between atoms: _545  and  _548
REMARK  224  A    between atoms: _548  and  _549
REMARK  225  A    between atoms: _554  and  _556
REMARK  226  A    between atoms: _556  and  _557
REMARK  227  A    between atoms: _556  and  _559
REMARK  228  A    between atoms: _559  and  _560
REMARK  229  A    between atoms: _563  and  _565
REMARK  230  A    between atoms: _565  and  _566
REMARK  231  A    between atoms: _565  and  _568
REMARK  232  A    between atoms: _568  and  _569
REMARK  233  A    between atoms: _575  and  _577
REMARK  234  A    between atoms: _577  and  _578
REMARK  235  A    between atoms: _577  and  _580
REMARK  236  A    between atoms: _580  and  _581
REMARK  237  A    between atoms: _587  and  _589
REMARK  238  A    between atoms: _589  and  _590
REMARK  239  A    between atoms: _589  and  _592
REMARK  240  A    between atoms: _592  and  _593
REMARK  241  A    between atoms: _596  and  _598
REMARK  242  A    between atoms: _598  and  _599
REMARK  243  A    between atoms: _598  and  _601
REMARK  244  A    between atoms: _601  and  _602
REMARK  245  A    between atoms: _605  and  _607
REMARK  246  A    between atoms: _607  and  _608
REMARK  247  A    between atoms: _607  and  _610
REMARK  248  A    between atoms: _610  and  _611
REMARK                            x       y       z     vdW  Elec       q    Type
REMARK                         _______ _______ _______ _____ _____    ______ ____
ROOT
ATOM      1  CA  HIS A   2      68.965  44.709  43.312  0.00  0.00    +0.143 C 
ENDROOT
BRANCH   1   3
ATOM      2  C   ALA A   1      67.618  44.199  41.313  0.00  0.00    +0.238 C 
ATOM      3  N   HIS A   2      67.692  44.629  42.519  0.00  0.00    -0.298 N 
ATOM      4  H   HIS A   2      66.813  44.943  42.978  0.00  0.00    +0.150 HD
ATOM      5  O   ALA A   1      68.603  43.956  40.617  0.00  0.00    -0.274 OA
BRANCH   2   6
ATOM      6  CA  ALA A   1      66.208  44.069  40.746  0.00  0.00    +0.145 C 
ATOM      7  CB  ALA A   1      65.671  45.432  40.337  0.00  0.00    +0.028 C 
BRANCH   6   8
ATOM      8  N   ALA A   1      65.315  43.439  41.710  0.00  0.00    -0.238 NA
ATOM      9  H   ALA A   1      64.533  43.993  42.114  0.00  0.00    +0.142 HD
ENDBRANCH   6   8
ENDBRANCH   2   6
ENDBRANCH   1   3
BRANCH   1  10
ATOM     10  C   HIS A   2      69.731  43.328  43.337  0.00  0.00    +0.227 C 
ATOM     11  O   HIS A   2      70.780  43.201  43.023  0.00  0.00    -0.286 OA
ENDBRANCH   1  10
BRANCH   1  12
ATOM     12  CB  HIS A   2      68.727  45.203  44.728  0.00  0.00    +0.075 C 
BRANCH  12  13
ATOM     13  CG  HIS A   2      69.846  45.903  45.263  0.00  0.00    +0.082 A 
ATOM     14  ND1 HIS A   2      70.730  45.290  46.149  0.00  0.00    -0.227 NA
ATOM     15  CE1 HIS A   2      71.728  46.104  46.369  0.00  0.00    +0.199 A 
ATOM     16  NE2 HIS A   2      71.610  47.136  45.572  0.00  0.00    -0.221 NA
ATOM     17  CD2 HIS A   2      70.416  47.073  44.896  0.00  0.00    +0.115 A 
ENDBRANCH  12  13
ENDBRANCH   1  12
TORSDOF 6
REMARK  Name = ../refined-set-2016/4pp3/4pp3_pocket.pdb
REMARK  248 active torsions:
REMARK  status: ('A' for Active; 'I' for Inactive)
REMARK    1  A    between atoms: _1  and  _3
REMARK    2  A    between atoms: _3  and  _4
REMARK    3  A    between atoms: _3  and  _6
REMARK    4  A    between atoms: _6  and  _7
REMARK    5  A    between atoms: _7  and  _8
REMARK    6  A    between atoms: _12  and  _13
REMARK    7  A    between atoms: _18  and  _20
REMARK    8  A    between atoms: _20  and  _21
REMARK    9  A    between atoms: _20  and  _23
REMARK   10  A    between atoms: _26  and  _28
REMARK   11  A    between atoms: _28  and  _29
REMARK   12  A    between atoms: _28  and  _31
REMARK   13  A    between atoms: _31  and  _32
REMARK   14  A    between atoms: _35  and  _37
REMARK   15  A    between atoms: _37  and  _38
REMARK   16  A    between atoms: _37  and  _40
REMARK   17  A    between atoms: _40  and  _41
REMARK   18  A    between atoms: _46  and  _48
REMARK   19  A    between atoms: _48  and  _49
REMARK   20  A    between atoms: _48  and  _51
REMARK   21  A    between atoms: _51  and  _52
REMARK   22  A    between atoms: _55  and  _57
REMARK   23  A    between atoms: _57  and  _58
REMARK   24  A    between atoms: _57  and  _60
REMARK   25  A    between atoms: _62  and  _64
REMARK   26  A    between atoms: _64  and  _65
REMARK   27  A    between atoms: _64  and  _67
REMARK   28  A    between atoms: _67  and  _68
REMARK   29  A    between atoms: _68  and  _69
REMARK   30  A    between atoms: _74  and  _76
REMARK   31  A    between atoms: _76  and  _77
REMARK   32  A    between atoms: _80  and  _82
REMARK   33  A    between atoms: _82  and  _83
REMARK   34  A    between atoms: _86  and  _88
REMARK   35  A    between atoms: _88  and  _89
REMARK   36  A    between atoms: _88  and  _91
REMARK   37  A    between atoms: _91  and  _92
REMARK   38  A    between atoms: _95  and  _97
REMARK   39  A    between atoms: _97  and  _98
REMARK   40  A    between atoms: _97  and  _100
REMARK   41  A    between atoms: _100  and  _101
REMARK   42  A    between atoms: _101  and  _102
REMARK   43  A    between atoms: _102  and  _103
REMARK   44  A    between atoms: _103  and  _104
REMARK   45  A    between atoms: _108  and  _110
REMARK   46  A    between atoms: _110  and  _111
REMARK   47  A    between atoms: _110  and  _113
REMARK   48  A    between atoms: _113  and  _114
REMARK   49  A    between atoms: _114  and  _115
REMARK   50  A    between atoms: _120  and  _122
REMARK   51  A    between atoms: _122  and  _123
REMARK   52  A    between atoms: _122  and  _125
REMARK   53  A    between atoms: _125  and  _126
REMARK   54  A    between atoms: _129  and  _131
REMARK   55  A    between atoms: _131  and  _132
REMARK   56  A    between atoms: _131  and  _134
REMARK   57  A    between atoms: _134  and  _135
REMARK   58  A    between atoms: _138  and  _140
REMARK   59  A    between atoms: _140  and  _141
REMARK   60  A    between atoms: _140  and  _143
REMARK   61  A    between atoms: _143  and  _144
REMARK   62  A    between atoms: _154  and  _156
REMARK   63  A    between atoms: _156  and  _157
REMARK   64  A    between atoms: _156  and  _159
REMARK   65  A    between atoms: _159  and  _160
REMARK   66  A    between atoms: _165  and  _167
REMARK   67  A    between atoms: _167  and  _168
REMARK   68  A    between atoms: _167  and  _170
REMARK   69  A    between atoms: _170  and  _171
REMARK   70  A    between atoms: _171  and  _172
REMARK   71  A    between atoms: _175  and  _177
REMARK   72  A    between atoms: _177  and  _178
REMARK   73  A    between atoms: _177  and  _180
REMARK   74  A    between atoms: _180  and  _181
REMARK   75  A    between atoms: _184  and  _186
REMARK   76  A    between atoms: _186  and  _187
REMARK   77  A    between atoms: _186  and  _189
REMARK   78  A    between atoms: _189  and  _190
REMARK   79  A    between atoms: _193  and  _195
REMARK   80  A    between atoms: _195  and  _196
REMARK   81  A    between atoms: _195  and  _198
REMARK   82  A    between atoms: _198  and  _199
REMARK   83  A    between atoms: _202  and  _204
REMARK   84  A    between atoms: _204  and  _205
REMARK   85  A    between atoms: _208  and  _210
REMARK   86  A    between atoms: _210  and  _211
REMARK   87  A    between atoms: _210  and  _213
REMARK   88  A    between atoms: _213  and  _214
REMARK   89  A    between atoms: _216  and  _218
REMARK   90  A    between atoms: _218  and  _219
REMARK   91  A    between atoms: _218  and  _221
REMARK   92  A    between atoms: _221  and  _222
REMARK   93  A    between atoms: _228  and  _230
REMARK   94  A    between atoms: _230  and  _231
REMARK   95  A    between atoms: _230  and  _233
REMARK   96  A    between atoms: _233  and  _234
REMARK   97  A    between atoms: _236  and  _238
REMARK   98  A    between atoms: _238  and  _239
REMARK   99  A    between atoms: _238  and  _241
REMARK  100  A    between atoms: _241  and  _242
REMARK  101  A    between atoms: _242  and  _243
REMARK  102  A    between atoms: _243  and  _244
REMARK  103  A    between atoms: _253  and  _255
REMARK  104  A    between atoms: _255  and  _256
REMARK  105  A    between atoms: _255  and  _258
REMARK  106  A    between atoms: _258  and  _259
REMARK  107  A    between atoms: _261  and  _263
REMARK  108  A    between atoms: _263  and  _264
REMARK  109  A    between atoms: _263  and  _266
REMARK  110  A    between atoms: _266  and  _267
REMARK  111  A    between atoms: _270  and  _272
REMARK  112  A    between atoms: _272  and  _273
REMARK  113  A    between atoms: _272  and  _275
REMARK  114  A    between atoms: _275  and  _276
REMARK  115  A    between atoms: _279  and  _281
REMARK  116  A    between atoms: _281  and  _282
REMARK  117  A    between atoms: _281  and  _284
REMARK  118  A    between atoms: _284  and  _285
REMARK  119  A    between atoms: _288  and  _290
REMARK  120  A    between atoms: _290  and  _291
REMARK  121  A    between atoms: _294  and  _296
REMARK  122  A    between atoms: _296  and  _297
REMARK  123  A    between atoms: _296  and  _299
REMARK  124  A    between atoms: _299  and  _300
REMARK  125  A    between atoms: _303  and  _305
REMARK  126  A    between atoms: _305  and  _306
REMARK  127  A    between atoms: _308  and  _310
REMARK  128  A    between atoms: _310  and  _311
REMARK  129  A    between atoms: _310  and  _313
REMARK  130  A    between atoms: _313  and  _314
REMARK  131  A    between atoms: _317  and  _319
REMARK  132  A    between atoms: _319  and  _320
REMARK  133  A    between atoms: _319  and  _322
REMARK  134  A    between atoms: _325  and  _327
REMARK  135  A    between atoms: _327  and  _328
REMARK  136  A    between atoms: _327  and  _330
REMARK  137  A    between atoms: _330  and  _331
REMARK  138  A    between atoms: _336  and  _338
REMARK  139  A    between atoms: _338  and  _339
REMARK  140  A    between atoms: _338  and  _341
REMARK  141  A    between atoms: _341  and  _342
REMARK  142  A    between atoms: _342  and  _343
REMARK  143  A    between atoms: _343  and  _344
REMARK  144  A    between atoms: _353  and  _355
REMARK  145  A    between atoms: _355  and  _356
REMARK  146  A    between atoms: _359  and  _361
REMARK  147  A    between atoms: _361  and  _362
REMARK  148  A    between atoms: _361  and  _364
REMARK  149  A    between atoms: _364  and  _365
REMARK  150  A    between atoms: _370  and  _372
REMARK  151  A    between atoms: _372  and  _373
REMARK  152  A    between atoms: _376  and  _378
REMARK  153  A    between atoms: _378  and  _379
REMARK  154  A    between atoms: _381  and  _383
REMARK  155  A    between atoms: _383  and  _384
REMARK  156  A    between atoms: _383  and  _386
REMARK  157  A    between atoms: _389  and  _391
REMARK  158  A    between atoms: _391  and  _392
REMARK  159  A    between atoms: _394  and  _396
REMARK  160  A    between atoms: _396  and  _397
REMARK  161  A    between atoms: _400  and  _402
REMARK  162  A    between atoms: _402  and  _403
REMARK  163  A    between atoms: _402  and  _405
REMARK  164  A    between atoms: _405  and  _406
REMARK  165  A    between atoms: _409  and  _411
REMARK  166  A    between atoms: _411  and  _412
REMARK  167  A    between atoms: _411  and  _414
REMARK  168  A    between atoms: _414  and  _415
REMARK  169  A    between atoms: _421  and  _423
REMARK  170  A    between atoms: _423  and  _424
REMARK  171  A    between atoms: _423  and  _426
REMARK  172  A    between atoms: _426  and  _427
REMARK  173  A    between atoms: _430  and  _432
REMARK  174  A    between atoms: _432  and  _433
REMARK  175  A    between atoms: _432  and  _435
REMARK  176  A    between atoms: _435  and  _436
REMARK  177  A    between atoms: _436  and  _437
REMARK  178  A    between atoms: _437  and  _438
REMARK  179  A    between atoms: _447  and  _449
REMARK  180  A    between atoms: _449  and  _450
REMARK  181  A    between atoms: _449  and  _452
REMARK  182  A    between atoms: _455  and  _457
REMARK  183  A    between atoms: _457  and  _458
REMARK  184  A    between atoms: _457  and  _460
REMARK  185  A    between atoms: _460  and  _461
REMARK  186  A    between atoms: _464  and  _466
REMARK  187  A    between atoms: _466  and  _467
REMARK  188  A    between atoms: _466  and  _469
REMARK  189  A    between atoms: _469  and  _470
REMARK  190  A    between atoms: _470  and  _471
REMARK  191  A    between atoms: _471  and  _472
REMARK  192  A    between atoms: _481  and  _483
REMARK  193  A    between atoms: _483  and  _484
REMARK  194  A    between atoms: _483  and  _486
REMARK  195  A    between atoms: _486  and  _487
REMARK  196  A    between atoms: _490  and  _492
REMARK  197  A    between atoms: _492  and  _493
REMARK  198  A    between atoms: _495  and  _497
REMARK  199  A    between atoms: _497  and  _498
REMARK  200  A    between atoms: _497  and  _500
REMARK  201  A    between atoms: _500  and  _501
REMARK  202  A    between atoms: _504  and  _506
REMARK  203  A    between atoms: _506  and  _507
REMARK  204  A    between atoms: _506  and  _509
REMARK  205  A    between atoms: _509  and  _510
REMARK  206  A    between atoms: _510  and  _511
REMARK  207  A    between atoms: _511  and  _512
REMARK  208  A    between atoms: _512  and  _513
REMARK  209  A    between atoms: _517  and  _519
REMARK  210  A    between atoms: _519  and  _520
REMARK  211  A    between atoms: _519  and  _522
REMARK  212  A    between atoms: _524  and  _526
REMARK  213  A    between atoms: _526  and  _527
REMARK  214  A    between atoms: _526  and  _529
REMARK  215  A    between atoms: _529  and  _530
REMARK  216  A    between atoms: _533  and  _535
REMARK  217  A    between atoms: _535  and  _536
REMARK  218  A    between atoms: _535  and  _538
REMARK  219  A    between atoms: _538  and  _539
REMARK  220  A    between atoms: _539  and  _540
REMARK  221  A    between atoms: _543  and  _545
REMARK  222  A    between atoms: _545  and  _546
REMARK  223  A    between atoms: _545  and  _548
REMARK  224  A    between atoms: _548  and  _549
REMARK  225  A    between atoms: _554  and  _556
REMARK  226  A    between atoms: _556  and  _557
REMARK  227  A    between atoms: _556  and  _559
REMARK  228  A    between atoms: _559  and  _560
REMARK  229  A    between atoms: _563  and  _565
REMARK  230  A    between atoms: _565  and  _566
REMARK  231  A    between atoms: _565  and  _568
REMARK  232  A    between atoms: _568  and  _569
REMARK  233  A    between atoms: _575  and  _577
REMARK  234  A    between atoms: _577  and  _578
REMARK  235  A    between atoms: _577  and  _580
REMARK  236  A    between atoms: _580  and  _581
REMARK  237  A    between atoms: _587  and  _589
REMARK  238  A    between atoms: _589  and  _590
REMARK  239  A    between atoms: _589  and  _592
REMARK  240  A    between atoms: _592  and  _593
REMARK  241  A    between atoms: _596  and  _598
REMARK  242  A    between atoms: _598  and  _599
REMARK  243  A    between atoms: _598  and  _601
REMARK  244  A    between atoms: _601  and  _602
REMARK  245  A    between atoms: _605  and  _607
REMARK  246  A    between atoms: _607  and  _608
REMARK  247  A    between atoms: _607  and  _610
REMARK  248  A    between atoms: _610  and  _611
REMARK                            x       y       z     vdW  Elec       q    Type
REMARK                         _______ _______ _______ _____ _____    ______ ____
ROOT
ATOM      1  CA  PHE A   7      66.284  50.341  38.769  0.00  0.00    +0.153 C 
ENDROOT
BRANCH   1   3
ATOM      2  C   ILE A   6      67.941  51.479  37.425  0.00  0.00    +0.241 C 
ATOM      3  N   PHE A   7      67.607  50.445  38.184  0.00  0.00    -0.297 N 
ATOM      4  H   PHE A   7      68.305  49.696  38.363  0.00  0.00    +0.150 HD
ATOM      5  O   ILE A   6      67.163  52.402  37.177  0.00  0.00    -0.273 OA
BRANCH   2   6
ATOM      6  CA  ILE A   6      69.385  51.485  36.902  0.00  0.00    +0.149 C 
BRANCH   6   9
ATOM      7  C   ALA A   5      70.403  51.657  39.095  0.00  0.00    +0.241 C 
ATOM      8  O   ALA A   5      69.757  52.676  39.335  0.00  0.00    -0.273 OA
ATOM      9  N   ILE A   6      70.287  50.999  37.946  0.00  0.00    -0.297 N 
ATOM     10  H   ILE A   6      70.841  50.133  37.788  0.00  0.00    +0.150 HD
BRANCH   7  11
ATOM     11  CA  ALA A   5      71.371  51.083  40.129  0.00  0.00    +0.149 C 
ATOM     12  CB  ALA A   5      72.821  51.180  39.628  0.00  0.00    +0.031 C 
BRANCH  11  15
ATOM     13  C   GLY A   4      69.868  49.378  40.994  0.00  0.00    +0.243 C 
ATOM     14  O   GLY A   4      68.979  50.203  41.228  0.00  0.00    -0.273 OA
ATOM     15  N   ALA A   5      71.045  49.709  40.469  0.00  0.00    -0.297 N 
ATOM     16  H   ALA A   5      71.750  48.964  40.298  0.00  0.00    +0.150 HD
BRANCH  13  17
ATOM     17  CA  GLY A   4      69.650  47.908  41.311  0.00  0.00    +0.176 C 
BRANCH  17  19
ATOM     18  C   VAL A   3      69.793  46.967  39.086  0.00  0.00    +0.241 C 
ATOM     19  N   GLY A   4      70.240  46.999  40.338  0.00  0.00    -0.295 N 
ATOM     20  H   GLY A   4      71.017  46.370  40.625  0.00  0.00    +0.150 HD
ATOM     21  O   VAL A   3      68.901  47.715  38.684  0.00  0.00    -0.273 OA
BRANCH  18  22
ATOM     22  CA  VAL A   3      70.459  45.964  38.153  0.00  0.00    +0.149 C 
BRANCH  22  24
ATOM     23  C   GLY A   2      72.243  44.521  38.941  0.00  0.00    +0.243 C 
ATOM     24  N   VAL A   3      70.943  44.789  38.873  0.00  0.00    -0.297 N 
ATOM     25  H   VAL A   3      70.262  44.155  39.338  0.00  0.00    +0.150 HD
ATOM     26  O   GLY A   2      73.085  45.239  38.407  0.00  0.00    -0.273 OA
BRANCH  23  27
ATOM     27  CA  GLY A   2      72.660  43.269  39.704  0.00  0.00    +0.176 C 
BRANCH  27  29
ATOM     28  C   ALA A   1      71.073  41.463  39.430  0.00  0.00    +0.238 C 
ATOM     29  N   GLY A   2      71.567  42.442  40.176  0.00  0.00    -0.296 N 
ATOM     30  H   GLY A   2      71.163  42.620  41.117  0.00  0.00    +0.150 HD
ATOM     31  O   ALA A   1      71.484  41.203  38.303  0.00  0.00    -0.274 OA
BRANCH  28  32
ATOM     32  CA  ALA A   1      69.924  40.667  40.008  0.00  0.00    +0.145 C 
ATOM     33  CB  ALA A   1      68.713  40.770  39.077  0.00  0.00    +0.028 C 
BRANCH  32  34
ATOM     34  N   ALA A   1      69.555  41.102  41.355  0.00  0.00    -0.238 NA
ATOM     35  H   ALA A   1      68.958  41.946  41.467  0.00  0.00    +0.142 HD
ENDBRANCH  32  34
ENDBRANCH  28  32
ENDBRANCH  27  29
ENDBRANCH  23  27
ENDBRANCH  22  24
BRANCH  22  36
ATOM     36  CB  VAL A   3      69.473  45.567  37.026  0.00  0.00    +0.027 C 
ATOM     37  CG2 VAL A   3      68.359  44.686  37.572  0.00  0.00    +0.002 C 
ATOM     38  CG1 VAL A   3      70.210  44.812  35.928  0.00  0.00    +0.002 C 
ENDBRANCH  22  36
ENDBRANCH  18  22
ENDBRANCH  17  19
ENDBRANCH  13  17
ENDBRANCH  11  15
ENDBRANCH   7  11
ENDBRANCH   6   9
BRANCH   6  39
ATOM     39  CB  ILE A   6      69.526  50.632  35.593  0.00  0.00    +0.027 C 
ATOM     40  CG2 ILE A   6      69.080  49.187  35.793  0.00  0.00    +0.002 C 
BRANCH  39  41
ATOM     41  CG1 ILE A   6      68.713  51.263  34.473  0.00  0.00    +0.002 C 
ATOM     42  CD1 ILE A   6      69.167  52.641  34.110  0.00  0.00    +0.000 C 
ENDBRANCH  39  41
ENDBRANCH   6  39
ENDBRANCH   2   6
ENDBRANCH   1   3
BRANCH   1  43
ATOM     43  C   PHE A   7      65.971  51.560  39.630  0.00  0.00    +0.241 C 
ATOM     44  N   ASP A   8      66.910  51.955  40.490  0.00  0.00    -0.297 N 
ATOM     45  H   ASP A   8      67.804  51.426  40.544  0.00  0.00    +0.150 HD
ATOM     46  O   PHE A   7      64.878  52.126  39.531  0.00  0.00    -0.273 OA
BRANCH  44  47
ATOM     47  CA  ASP A   8      66.712  53.117  41.362  0.00  0.00    +0.160 C 
BRANCH  47  48
ATOM     48  C   ASP A   8      66.520  54.412  40.554  0.00  0.00    +0.241 C 
ATOM     49  O   ASP A   8      65.745  55.281  40.947  0.00  0.00    -0.273 OA
ATOM     50  N   ARG A   9      67.202  54.535  39.430  0.00  0.00    -0.297 N 
ATOM     51  H   ARG A   9      67.841  53.773  39.126  0.00  0.00    +0.150 HD
BRANCH  50  52
ATOM     52  CA  ARG A   9      67.062  55.739  38.610  0.00  0.00    +0.149 C 
BRANCH  52  53
ATOM     53  C   ARG A   9      65.639  55.812  38.035  0.00  0.00    +0.241 C 
ATOM     54  O   ARG A   9      65.019  56.878  38.031  0.00  0.00    -0.273 OA
ATOM     55  N   VAL A  10      65.132  54.673  37.558  0.00  0.00    -0.297 N 
ATOM     56  H   VAL A  10      65.703  53.804  37.589  0.00  0.00    +0.150 HD
BRANCH  55  57
ATOM     57  CA  VAL A  10      63.779  54.632  36.991  0.00  0.00    +0.149 C 
BRANCH  57  58
ATOM     58  C   VAL A  10      62.745  55.070  38.017  0.00  0.00    +0.241 C 
ATOM     59  N   LEU A  11      62.882  54.614  39.224  0.00  0.00    -0.298 N 
ATOM     60  H   LEU A  11      63.676  53.976  39.436  0.00  0.00    +0.150 HD
ATOM     61  O   VAL A  10      61.849  55.863  37.699  0.00  0.00    -0.273 OA
BRANCH  59  62
ATOM     62  CA  LEU A  11      61.995  54.955  40.244  0.00  0.00    +0.137 C 
BRANCH  62  63
ATOM     63  C   LEU A  11      62.082  56.374  40.673  0.00  0.00    +0.227 C 
ATOM     64  O   LEU A  11      61.130  56.941  40.803  0.00  0.00    -0.286 OA
ENDBRANCH  62  63
BRANCH  62  65
ATOM     65  CB  LEU A  11      62.091  54.051  41.417  0.00  0.00    +0.028 C 
BRANCH  65  66
ATOM     66  CG  LEU A  11      61.502  52.746  41.464  0.00  0.00    +0.002 C 
ATOM     67  CD2 LEU A  11      60.959  52.427  42.699  0.00  0.00    +0.000 C 
ATOM     68  CD1 LEU A  11      60.640  52.296  40.476  0.00  0.00    +0.000 C 
ENDBRANCH  65  66
ENDBRANCH  62  65
ENDBRANCH  59  62
ENDBRANCH  57  58
BRANCH  57  69
ATOM     69  CB  VAL A  10      63.428  53.220  36.490  0.00  0.00    +0.027 C 
ATOM     70  CG2 VAL A  10      61.950  53.142  36.109  0.00  0.00    +0.002 C 
ATOM     71  CG1 VAL A  10      64.276  52.878  35.272  0.00  0.00    +0.002 C 
ENDBRANCH  57  69
ENDBRANCH  55  57
ENDBRANCH  52  53
BRANCH  52  72
ATOM     72  CB  ARG A   9      68.091  55.747  37.469  0.00  0.00    +0.033 C 
BRANCH  72  73
ATOM     73  CG  ARG A   9      69.547  55.905  37.948  0.00  0.00    +0.045 C 
BRANCH  73  74
ATOM     74  CD  ARG A   9      70.483  56.304  36.795  0.00  0.00    +0.174 C 
BRANCH  74  75
ATOM     75  NE  ARG A   9      70.045  57.553  36.176  0.00  0.00    -0.265 N 
ATOM     76  HE  ARG A   9      69.192  58.009  36.557  0.00  0.00    +0.259 HD
ATOM     77  CZ  ARG A   9      70.664  58.148  35.156  0.00  0.00    +0.342 C 
ATOM     78  NH2 ARG A   9      70.184  59.273  34.644  0.00  0.00    -0.292 N 
ATOM     79 HH21 ARG A   9      69.320  59.696  35.038  0.00  0.00    +0.255 HD
ATOM     80 HH22 ARG A   9      70.672  59.732  33.848  0.00  0.00    +0.255 HD
ATOM     81  NH1 ARG A   9      71.756  57.602  34.629  0.00  0.00    -0.292 N 
ATOM     82 HH11 ARG A   9      72.128  56.710  35.012  0.00  0.00    +0.255 HD
ATOM     83 HH12 ARG A   9      72.238  58.067  33.833  0.00  0.00    +0.255 HD
ENDBRANCH  74  75
ENDBRANCH  73  74
ENDBRANCH  72  73
ENDBRANCH  52  72
ENDBRANCH  50  52
ENDBRANCH  47  48
BRANCH  47  84
ATOM     84  CB  ASP A   8      67.892  53.259  42.340  0.00  0.00    +0.143 C 
BRANCH  84  85
ATOM     85  CG  ASP A   8      67.905  52.171  43.421  0.00  0.00    +0.367 C 
ATOM     86  OD2 ASP A   8      68.920  52.042  44.134  0.00  0.00    -0.246 OA
ATOM     87  OD1 ASP A   8      66.897  51.450  43.556  0.00  0.00    -0.246 OA
ENDBRANCH  84  85
ENDBRANCH  47  84
ENDBRANCH  44  47
ENDBRANCH   1  43
BRANCH   1  88
ATOM     88  CB  PHE A   7      66.175  49.089  39.620  0.00  0.00    +0.055 C 
BRANCH  88  89
ATOM     89  CG  PHE A   7      64.858  48.947  40.292  0.00  0.00    -0.020 A 
ATOM     90  CD2 PHE A   7      64.642  49.492  41.548  0.00  0.00    -0.004 A 
ATOM     91  CE2 PHE A   7      63.409  49.399  42.172  0.00  0.00    -0.000 A 
ATOM     92  CZ  PHE A   7      62.359  48.739  41.517  0.00  0.00    -0.000 A 
ATOM     93  CE1 PHE A   7      62.560  48.191  40.265  0.00  0.00    -0.000 A 
ATOM     94  CD1 PHE A   7      63.808  48.293  39.649  0.00  0.00    -0.004 A 
ENDBRANCH  88  89
ENDBRANCH   1  88
TORSDOF 36
REMARK  Name = ../refined-set-2016/4pp3/4pp3_pocket.pdb
REMARK  248 active torsions:
REMARK  status: ('A' for Active; 'I' for Inactive)
REMARK    1  A    between atoms: _1  and  _3
REMARK    2  A    between atoms: _3  and  _4
REMARK    3  A    between atoms: _3  and  _6
REMARK    4  A    between atoms: _6  and  _7
REMARK    5  A    between atoms: _7  and  _8
REMARK    6  A    between atoms: _12  and  _13
REMARK    7  A    between atoms: _18  and  _20
REMARK    8  A    between atoms: _20  and  _21
REMARK    9  A    between atoms: _20  and  _23
REMARK   10  A    between atoms: _26  and  _28
REMARK   11  A    between atoms: _28  and  _29
REMARK   12  A    between atoms: _28  and  _31
REMARK   13  A    between atoms: _31  and  _32
REMARK   14  A    between atoms: _35  and  _37
REMARK   15  A    between atoms: _37  and  _38
REMARK   16  A    between atoms: _37  and  _40
REMARK   17  A    between atoms: _40  and  _41
REMARK   18  A    between atoms: _46  and  _48
REMARK   19  A    between atoms: _48  and  _49
REMARK   20  A    between atoms: _48  and  _51
REMARK   21  A    between atoms: _51  and  _52
REMARK   22  A    between atoms: _55  and  _57
REMARK   23  A    between atoms: _57  and  _58
REMARK   24  A    between atoms: _57  and  _60
REMARK   25  A    between atoms: _62  and  _64
REMARK   26  A    between atoms: _64  and  _65
REMARK   27  A    between atoms: _64  and  _67
REMARK   28  A    between atoms: _67  and  _68
REMARK   29  A    between atoms: _68  and  _69
REMARK   30  A    between atoms: _74  and  _76
REMARK   31  A    between atoms: _76  and  _77
REMARK   32  A    between atoms: _80  and  _82
REMARK   33  A    between atoms: _82  and  _83
REMARK   34  A    between atoms: _86  and  _88
REMARK   35  A    between atoms: _88  and  _89
REMARK   36  A    between atoms: _88  and  _91
REMARK   37  A    between atoms: _91  and  _92
REMARK   38  A    between atoms: _95  and  _97
REMARK   39  A    between atoms: _97  and  _98
REMARK   40  A    between atoms: _97  and  _100
REMARK   41  A    between atoms: _100  and  _101
REMARK   42  A    between atoms: _101  and  _102
REMARK   43  A    between atoms: _102  and  _103
REMARK   44  A    between atoms: _103  and  _104
REMARK   45  A    between atoms: _108  and  _110
REMARK   46  A    between atoms: _110  and  _111
REMARK   47  A    between atoms: _110  and  _113
REMARK   48  A    between atoms: _113  and  _114
REMARK   49  A    between atoms: _114  and  _115
REMARK   50  A    between atoms: _120  and  _122
REMARK   51  A    between atoms: _122  and  _123
REMARK   52  A    between atoms: _122  and  _125
REMARK   53  A    between atoms: _125  and  _126
REMARK   54  A    between atoms: _129  and  _131
REMARK   55  A    between atoms: _131  and  _132
REMARK   56  A    between atoms: _131  and  _134
REMARK   57  A    between atoms: _134  and  _135
REMARK   58  A    between atoms: _138  and  _140
REMARK   59  A    between atoms: _140  and  _141
REMARK   60  A    between atoms: _140  and  _143
REMARK   61  A    between atoms: _143  and  _144
REMARK   62  A    between atoms: _154  and  _156
REMARK   63  A    between atoms: _156  and  _157
REMARK   64  A    between atoms: _156  and  _159
REMARK   65  A    between atoms: _159  and  _160
REMARK   66  A    between atoms: _165  and  _167
REMARK   67  A    between atoms: _167  and  _168
REMARK   68  A    between atoms: _167  and  _170
REMARK   69  A    between atoms: _170  and  _171
REMARK   70  A    between atoms: _171  and  _172
REMARK   71  A    between atoms: _175  and  _177
REMARK   72  A    between atoms: _177  and  _178
REMARK   73  A    between atoms: _177  and  _180
REMARK   74  A    between atoms: _180  and  _181
REMARK   75  A    between atoms: _184  and  _186
REMARK   76  A    between atoms: _186  and  _187
REMARK   77  A    between atoms: _186  and  _189
REMARK   78  A    between atoms: _189  and  _190
REMARK   79  A    between atoms: _193  and  _195
REMARK   80  A    between atoms: _195  and  _196
REMARK   81  A    between atoms: _195  and  _198
REMARK   82  A    between atoms: _198  and  _199
REMARK   83  A    between atoms: _202  and  _204
REMARK   84  A    between atoms: _204  and  _205
REMARK   85  A    between atoms: _208  and  _210
REMARK   86  A    between atoms: _210  and  _211
REMARK   87  A    between atoms: _210  and  _213
REMARK   88  A    between atoms: _213  and  _214
REMARK   89  A    between atoms: _216  and  _218
REMARK   90  A    between atoms: _218  and  _219
REMARK   91  A    between atoms: _218  and  _221
REMARK   92  A    between atoms: _221  and  _222
REMARK   93  A    between atoms: _228  and  _230
REMARK   94  A    between atoms: _230  and  _231
REMARK   95  A    between atoms: _230  and  _233
REMARK   96  A    between atoms: _233  and  _234
REMARK   97  A    between atoms: _236  and  _238
REMARK   98  A    between atoms: _238  and  _239
REMARK   99  A    between atoms: _238  and  _241
REMARK  100  A    between atoms: _241  and  _242
REMARK  101  A    between atoms: _242  and  _243
REMARK  102  A    between atoms: _243  and  _244
REMARK  103  A    between atoms: _253  and  _255
REMARK  104  A    between atoms: _255  and  _256
REMARK  105  A    between atoms: _255  and  _258
REMARK  106  A    between atoms: _258  and  _259
REMARK  107  A    between atoms: _261  and  _263
REMARK  108  A    between atoms: _263  and  _264
REMARK  109  A    between atoms: _263  and  _266
REMARK  110  A    between atoms: _266  and  _267
REMARK  111  A    between atoms: _270  and  _272
REMARK  112  A    between atoms: _272  and  _273
REMARK  113  A    between atoms: _272  and  _275
REMARK  114  A    between atoms: _275  and  _276
REMARK  115  A    between atoms: _279  and  _281
REMARK  116  A    between atoms: _281  and  _282
REMARK  117  A    between atoms: _281  and  _284
REMARK  118  A    between atoms: _284  and  _285
REMARK  119  A    between atoms: _288  and  _290
REMARK  120  A    between atoms: _290  and  _291
REMARK  121  A    between atoms: _294  and  _296
REMARK  122  A    between atoms: _296  and  _297
REMARK  123  A    between atoms: _296  and  _299
REMARK  124  A    between atoms: _299  and  _300
REMARK  125  A    between atoms: _303  and  _305
REMARK  126  A    between atoms: _305  and  _306
REMARK  127  A    between atoms: _308  and  _310
REMARK  128  A    between atoms: _310  and  _311
REMARK  129  A    between atoms: _310  and  _313
REMARK  130  A    between atoms: _313  and  _314
REMARK  131  A    between atoms: _317  and  _319
REMARK  132  A    between atoms: _319  and  _320
REMARK  133  A    between atoms: _319  and  _322
REMARK  134  A    between atoms: _325  and  _327
REMARK  135  A    between atoms: _327  and  _328
REMARK  136  A    between atoms: _327  and  _330
REMARK  137  A    between atoms: _330  and  _331
REMARK  138  A    between atoms: _336  and  _338
REMARK  139  A    between atoms: _338  and  _339
REMARK  140  A    between atoms: _338  and  _341
REMARK  141  A    between atoms: _341  and  _342
REMARK  142  A    between atoms: _342  and  _343
REMARK  143  A    between atoms: _343  and  _344
REMARK  144  A    between atoms: _353  and  _355
REMARK  145  A    between atoms: _355  and  _356
REMARK  146  A    between atoms: _359  and  _361
REMARK  147  A    between atoms: _361  and  _362
REMARK  148  A    between atoms: _361  and  _364
REMARK  149  A    between atoms: _364  and  _365
REMARK  150  A    between atoms: _370  and  _372
REMARK  151  A    between atoms: _372  and  _373
REMARK  152  A    between atoms: _376  and  _378
REMARK  153  A    between atoms: _378  and  _379
REMARK  154  A    between atoms: _381  and  _383
REMARK  155  A    between atoms: _383  and  _384
REMARK  156  A    between atoms: _383  and  _386
REMARK  157  A    between atoms: _389  and  _391
REMARK  158  A    between atoms: _391  and  _392
REMARK  159  A    between atoms: _394  and  _396
REMARK  160  A    between atoms: _396  and  _397
REMARK  161  A    between atoms: _400  and  _402
REMARK  162  A    between atoms: _402  and  _403
REMARK  163  A    between atoms: _402  and  _405
REMARK  164  A    between atoms: _405  and  _406
REMARK  165  A    between atoms: _409  and  _411
REMARK  166  A    between atoms: _411  and  _412
REMARK  167  A    between atoms: _411  and  _414
REMARK  168  A    between atoms: _414  and  _415
REMARK  169  A    between atoms: _421  and  _423
REMARK  170  A    between atoms: _423  and  _424
REMARK  171  A    between atoms: _423  and  _426
REMARK  172  A    between atoms: _426  and  _427
REMARK  173  A    between atoms: _430  and  _432
REMARK  174  A    between atoms: _432  and  _433
REMARK  175  A    between atoms: _432  and  _435
REMARK  176  A    between atoms: _435  and  _436
REMARK  177  A    between atoms: _436  and  _437
REMARK  178  A    between atoms: _437  and  _438
REMARK  179  A    between atoms: _447  and  _449
REMARK  180  A    between atoms: _449  and  _450
REMARK  181  A    between atoms: _449  and  _452
REMARK  182  A    between atoms: _455  and  _457
REMARK  183  A    between atoms: _457  and  _458
REMARK  184  A    between atoms: _457  and  _460
REMARK  185  A    between atoms: _460  and  _461
REMARK  186  A    between atoms: _464  and  _466
REMARK  187  A    between atoms: _466  and  _467
REMARK  188  A    between atoms: _466  and  _469
REMARK  189  A    between atoms: _469  and  _470
REMARK  190  A    between atoms: _470  and  _471
REMARK  191  A    between atoms: _471  and  _472
REMARK  192  A    between atoms: _481  and  _483
REMARK  193  A    between atoms: _483  and  _484
REMARK  194  A    between atoms: _483  and  _486
REMARK  195  A    between atoms: _486  and  _487
REMARK  196  A    between atoms: _490  and  _492
REMARK  197  A    between atoms: _492  and  _493
REMARK  198  A    between atoms: _495  and  _497
REMARK  199  A    between atoms: _497  and  _498
REMARK  200  A    between atoms: _497  and  _500
REMARK  201  A    between atoms: _500  and  _501
REMARK  202  A    between atoms: _504  and  _506
REMARK  203  A    between atoms: _506  and  _507
REMARK  204  A    between atoms: _506  and  _509
REMARK  205  A    between atoms: _509  and  _510
REMARK  206  A    between atoms: _510  and  _511
REMARK  207  A    between atoms: _511  and  _512
REMARK  208  A    between atoms: _512  and  _513
REMARK  209  A    between atoms: _517  and  _519
REMARK  210  A    between atoms: _519  and  _520
REMARK  211  A    between atoms: _519  and  _522
REMARK  212  A    between atoms: _524  and  _526
REMARK  213  A    between atoms: _526  and  _527
REMARK  214  A    between atoms: _526  and  _529
REMARK  215  A    between atoms: _529  and  _530
REMARK  216  A    between atoms: _533  and  _535
REMARK  217  A    between atoms: _535  and  _536
REMARK  218  A    between atoms: _535  and  _538
REMARK  219  A    between atoms: _538  and  _539
REMARK  220  A    between atoms: _539  and  _540
REMARK  221  A    between atoms: _543  and  _545
REMARK  222  A    between atoms: _545  and  _546
REMARK  223  A    between atoms: _545  and  _548
REMARK  224  A    between atoms: _548  and  _549
REMARK  225  A    between atoms: _554  and  _556
REMARK  226  A    between atoms: _556  and  _557
REMARK  227  A    between atoms: _556  and  _559
REMARK  228  A    between atoms: _559  and  _560
REMARK  229  A    between atoms: _563  and  _565
REMARK  230  A    between atoms: _565  and  _566
REMARK  231  A    between atoms: _565  and  _568
REMARK  232  A    between atoms: _568  and  _569
REMARK  233  A    between atoms: _575  and  _577
REMARK  234  A    between atoms: _577  and  _578
REMARK  235  A    between atoms: _577  and  _580
REMARK  236  A    between atoms: _580  and  _581
REMARK  237  A    between atoms: _587  and  _589
REMARK  238  A    between atoms: _589  and  _590
REMARK  239  A    between atoms: _589  and  _592
REMARK  240  A    between atoms: _592  and  _593
REMARK  241  A    between atoms: _596  and  _598
REMARK  242  A    between atoms: _598  and  _599
REMARK  243  A    between atoms: _598  and  _601
REMARK  244  A    between atoms: _601  and  _602
REMARK  245  A    between atoms: _605  and  _607
REMARK  246  A    between atoms: _607  and  _608
REMARK  247  A    between atoms: _607  and  _610
REMARK  248  A    between atoms: _610  and  _611
REMARK                            x       y       z     vdW  Elec       q    Type
REMARK                         _______ _______ _______ _____ _____    ______ ____
ROOT
ATOM      1  NE  ARG A   1      55.070  55.474  25.090  0.00  0.00    -0.265 N 
ATOM      2  HE  ARG A   1      56.090  55.324  25.225  0.00  0.00    +0.259 HD
ATOM      3  CZ  ARG A   1      54.394  54.557  24.400  0.00  0.00    +0.342 C 
ATOM      4  NH2 ARG A   1      53.097  54.683  24.178  0.00  0.00    -0.292 N 
ATOM      5 HH21 ARG A   1      52.585  55.510  24.545  0.00  0.00    +0.255 HD
ATOM      6 HH22 ARG A   1      52.589  53.955  23.637  0.00  0.00    +0.255 HD
ATOM      7  NH1 ARG A   1      55.029  53.475  23.948  0.00  0.00    -0.292 N 
ATOM      8 HH11 ARG A   1      56.045  53.352  24.135  0.00  0.00    +0.255 HD
ATOM      9 HH12 ARG A   1      54.509  52.754  23.408  0.00  0.00    +0.255 HD
ENDROOT
BRANCH   1  10
ATOM     10  CD  ARG A   1      54.478  56.672  25.668  0.00  0.00    +0.174 C 
BRANCH  10  11
ATOM     11  CG  ARG A   1      55.342  57.909  25.480  0.00  0.00    +0.045 C 
BRANCH  11  12
ATOM     12  CB  ARG A   1      55.227  58.456  24.073  0.00  0.00    +0.029 C 
BRANCH  12  13
ATOM     13  CA  ARG A   1      56.050  59.736  23.849  0.00  0.00    +0.133 C 
BRANCH  13  14
ATOM     14  N   ARG A   1      55.560  60.816  24.712  0.00  0.00    -0.239 NA
ATOM     15  H   ARG A   1      54.706  60.674  25.288  0.00  0.00    +0.142 HD
ENDBRANCH  13  14
BRANCH  13  16
ATOM     16  C   ARG A   1      55.996  60.142  22.376  0.00  0.00    +0.224 C 
ATOM     17  O   ARG A   1      56.891  59.810  21.595  0.00  0.00    -0.287 OA
ENDBRANCH  13  16
ENDBRANCH  12  13
ENDBRANCH  11  12
ENDBRANCH  10  11
ENDBRANCH   1  10
TORSDOF 6
REMARK  Name = ../refined-set-2016/4pp3/4pp3_pocket.pdb
REMARK  248 active torsions:
REMARK  status: ('A' for Active; 'I' for Inactive)
REMARK    1  A    between atoms: _1  and  _3
REMARK    2  A    between atoms: _3  and  _4
REMARK    3  A    between atoms: _3  and  _6
REMARK    4  A    between atoms: _6  and  _7
REMARK    5  A    between atoms: _7  and  _8
REMARK    6  A    between atoms: _12  and  _13
REMARK    7  A    between atoms: _18  and  _20
REMARK    8  A    between atoms: _20  and  _21
REMARK    9  A    between atoms: _20  and  _23
REMARK   10  A    between atoms: _26  and  _28
REMARK   11  A    between atoms: _28  and  _29
REMARK   12  A    between atoms: _28  and  _31
REMARK   13  A    between atoms: _31  and  _32
REMARK   14  A    between atoms: _35  and  _37
REMARK   15  A    between atoms: _37  and  _38
REMARK   16  A    between atoms: _37  and  _40
REMARK   17  A    between atoms: _40  and  _41
REMARK   18  A    between atoms: _46  and  _48
REMARK   19  A    between atoms: _48  and  _49
REMARK   20  A    between atoms: _48  and  _51
REMARK   21  A    between atoms: _51  and  _52
REMARK   22  A    between atoms: _55  and  _57
REMARK   23  A    between atoms: _57  and  _58
REMARK   24  A    between atoms: _57  and  _60
REMARK   25  A    between atoms: _62  and  _64
REMARK   26  A    between atoms: _64  and  _65
REMARK   27  A    between atoms: _64  and  _67
REMARK   28  A    between atoms: _67  and  _68
REMARK   29  A    between atoms: _68  and  _69
REMARK   30  A    between atoms: _74  and  _76
REMARK   31  A    between atoms: _76  and  _77
REMARK   32  A    between atoms: _80  and  _82
REMARK   33  A    between atoms: _82  and  _83
REMARK   34  A    between atoms: _86  and  _88
REMARK   35  A    between atoms: _88  and  _89
REMARK   36  A    between atoms: _88  and  _91
REMARK   37  A    between atoms: _91  and  _92
REMARK   38  A    between atoms: _95  and  _97
REMARK   39  A    between atoms: _97  and  _98
REMARK   40  A    between atoms: _97  and  _100
REMARK   41  A    between atoms: _100  and  _101
REMARK   42  A    between atoms: _101  and  _102
REMARK   43  A    between atoms: _102  and  _103
REMARK   44  A    between atoms: _103  and  _104
REMARK   45  A    between atoms: _108  and  _110
REMARK   46  A    between atoms: _110  and  _111
REMARK   47  A    between atoms: _110  and  _113
REMARK   48  A    between atoms: _113  and  _114
REMARK   49  A    between atoms: _114  and  _115
REMARK   50  A    between atoms: _120  and  _122
REMARK   51  A    between atoms: _122  and  _123
REMARK   52  A    between atoms: _122  and  _125
REMARK   53  A    between atoms: _125  and  _126
REMARK   54  A    between atoms: _129  and  _131
REMARK   55  A    between atoms: _131  and  _132
REMARK   56  A    between atoms: _131  and  _134
REMARK   57  A    between atoms: _134  and  _135
REMARK   58  A    between atoms: _138  and  _140
REMARK   59  A    between atoms: _140  and  _141
REMARK   60  A    between atoms: _140  and  _143
REMARK   61  A    between atoms: _143  and  _144
REMARK   62  A    between atoms: _154  and  _156
REMARK   63  A    between atoms: _156  and  _157
REMARK   64  A    between atoms: _156  and  _159
REMARK   65  A    between atoms: _159  and  _160
REMARK   66  A    between atoms: _165  and  _167
REMARK   67  A    between atoms: _167  and  _168
REMARK   68  A    between atoms: _167  and  _170
REMARK   69  A    between atoms: _170  and  _171
REMARK   70  A    between atoms: _171  and  _172
REMARK   71  A    between atoms: _175  and  _177
REMARK   72  A    between atoms: _177  and  _178
REMARK   73  A    between atoms: _177  and  _180
REMARK   74  A    between atoms: _180  and  _181
REMARK   75  A    between atoms: _184  and  _186
REMARK   76  A    between atoms: _186  and  _187
REMARK   77  A    between atoms: _186  and  _189
REMARK   78  A    between atoms: _189  and  _190
REMARK   79  A    between atoms: _193  and  _195
REMARK   80  A    between atoms: _195  and  _196
REMARK   81  A    between atoms: _195  and  _198
REMARK   82  A    between atoms: _198  and  _199
REMARK   83  A    between atoms: _202  and  _204
REMARK   84  A    between atoms: _204  and  _205
REMARK   85  A    between atoms: _208  and  _210
REMARK   86  A    between atoms: _210  and  _211
REMARK   87  A    between atoms: _210  and  _213
REMARK   88  A    between atoms: _213  and  _214
REMARK   89  A    between atoms: _216  and  _218
REMARK   90  A    between atoms: _218  and  _219
REMARK   91  A    between atoms: _218  and  _221
REMARK   92  A    between atoms: _221  and  _222
REMARK   93  A    between atoms: _228  and  _230
REMARK   94  A    between atoms: _230  and  _231
REMARK   95  A    between atoms: _230  and  _233
REMARK   96  A    between atoms: _233  and  _234
REMARK   97  A    between atoms: _236  and  _238
REMARK   98  A    between atoms: _238  and  _239
REMARK   99  A    between atoms: _238  and  _241
REMARK  100  A    between atoms: _241  and  _242
REMARK  101  A    between atoms: _242  and  _243
REMARK  102  A    between atoms: _243  and  _244
REMARK  103  A    between atoms: _253  and  _255
REMARK  104  A    between atoms: _255  and  _256
REMARK  105  A    between atoms: _255  and  _258
REMARK  106  A    between atoms: _258  and  _259
REMARK  107  A    between atoms: _261  and  _263
REMARK  108  A    between atoms: _263  and  _264
REMARK  109  A    between atoms: _263  and  _266
REMARK  110  A    between atoms: _266  and  _267
REMARK  111  A    between atoms: _270  and  _272
REMARK  112  A    between atoms: _272  and  _273
REMARK  113  A    between atoms: _272  and  _275
REMARK  114  A    between atoms: _275  and  _276
REMARK  115  A    between atoms: _279  and  _281
REMARK  116  A    between atoms: _281  and  _282
REMARK  117  A    between atoms: _281  and  _284
REMARK  118  A    between atoms: _284  and  _285
REMARK  119  A    between atoms: _288  and  _290
REMARK  120  A    between atoms: _290  and  _291
REMARK  121  A    between atoms: _294  and  _296
REMARK  122  A    between atoms: _296  and  _297
REMARK  123  A    between atoms: _296  and  _299
REMARK  124  A    between atoms: _299  and  _300
REMARK  125  A    between atoms: _303  and  _305
REMARK  126  A    between atoms: _305  and  _306
REMARK  127  A    between atoms: _308  and  _310
REMARK  128  A    between atoms: _310  and  _311
REMARK  129  A    between atoms: _310  and  _313
REMARK  130  A    between atoms: _313  and  _314
REMARK  131  A    between atoms: _317  and  _319
REMARK  132  A    between atoms: _319  and  _320
REMARK  133  A    between atoms: _319  and  _322
REMARK  134  A    between atoms: _325  and  _327
REMARK  135  A    between atoms: _327  and  _328
REMARK  136  A    between atoms: _327  and  _330
REMARK  137  A    between atoms: _330  and  _331
REMARK  138  A    between atoms: _336  and  _338
REMARK  139  A    between atoms: _338  and  _339
REMARK  140  A    between atoms: _338  and  _341
REMARK  141  A    between atoms: _341  and  _342
REMARK  142  A    between atoms: _342  and  _343
REMARK  143  A    between atoms: _343  and  _344
REMARK  144  A    between atoms: _353  and  _355
REMARK  145  A    between atoms: _355  and  _356
REMARK  146  A    between atoms: _359  and  _361
REMARK  147  A    between atoms: _361  and  _362
REMARK  148  A    between atoms: _361  and  _364
REMARK  149  A    between atoms: _364  and  _365
REMARK  150  A    between atoms: _370  and  _372
REMARK  151  A    between atoms: _372  and  _373
REMARK  152  A    between atoms: _376  and  _378
REMARK  153  A    between atoms: _378  and  _379
REMARK  154  A    between atoms: _381  and  _383
REMARK  155  A    between atoms: _383  and  _384
REMARK  156  A    between atoms: _383  and  _386
REMARK  157  A    between atoms: _389  and  _391
REMARK  158  A    between atoms: _391  and  _392
REMARK  159  A    between atoms: _394  and  _396
REMARK  160  A    between atoms: _396  and  _397
REMARK  161  A    between atoms: _400  and  _402
REMARK  162  A    between atoms: _402  and  _403
REMARK  163  A    between atoms: _402  and  _405
REMARK  164  A    between atoms: _405  and  _406
REMARK  165  A    between atoms: _409  and  _411
REMARK  166  A    between atoms: _411  and  _412
REMARK  167  A    between atoms: _411  and  _414
REMARK  168  A    between atoms: _414  and  _415
REMARK  169  A    between atoms: _421  and  _423
REMARK  170  A    between atoms: _423  and  _424
REMARK  171  A    between atoms: _423  and  _426
REMARK  172  A    between atoms: _426  and  _427
REMARK  173  A    between atoms: _430  and  _432
REMARK  174  A    between atoms: _432  and  _433
REMARK  175  A    between atoms: _432  and  _435
REMARK  176  A    between atoms: _435  and  _436
REMARK  177  A    between atoms: _436  and  _437
REMARK  178  A    between atoms: _437  and  _438
REMARK  179  A    between atoms: _447  and  _449
REMARK  180  A    between atoms: _449  and  _450
REMARK  181  A    between atoms: _449  and  _452
REMARK  182  A    between atoms: _455  and  _457
REMARK  183  A    between atoms: _457  and  _458
REMARK  184  A    between atoms: _457  and  _460
REMARK  185  A    between atoms: _460  and  _461
REMARK  186  A    between atoms: _464  and  _466
REMARK  187  A    between atoms: _466  and  _467
REMARK  188  A    between atoms: _466  and  _469
REMARK  189  A    between atoms: _469  and  _470
REMARK  190  A    between atoms: _470  and  _471
REMARK  191  A    between atoms: _471  and  _472
REMARK  192  A    between atoms: _481  and  _483
REMARK  193  A    between atoms: _483  and  _484
REMARK  194  A    between atoms: _483  and  _486
REMARK  195  A    between atoms: _486  and  _487
REMARK  196  A    between atoms: _490  and  _492
REMARK  197  A    between atoms: _492  and  _493
REMARK  198  A    between atoms: _495  and  _497
REMARK  199  A    between atoms: _497  and  _498
REMARK  200  A    between atoms: _497  and  _500
REMARK  201  A    between atoms: _500  and  _501
REMARK  202  A    between atoms: _504  and  _506
REMARK  203  A    between atoms: _506  and  _507
REMARK  204  A    between atoms: _506  and  _509
REMARK  205  A    between atoms: _509  and  _510
REMARK  206  A    between atoms: _510  and  _511
REMARK  207  A    between atoms: _511  and  _512
REMARK  208  A    between atoms: _512  and  _513
REMARK  209  A    between atoms: _517  and  _519
REMARK  210  A    between atoms: _519  and  _520
REMARK  211  A    between atoms: _519  and  _522
REMARK  212  A    between atoms: _524  and  _526
REMARK  213  A    between atoms: _526  and  _527
REMARK  214  A    between atoms: _526  and  _529
REMARK  215  A    between atoms: _529  and  _530
REMARK  216  A    between atoms: _533  and  _535
REMARK  217  A    between atoms: _535  and  _536
REMARK  218  A    between atoms: _535  and  _538
REMARK  219  A    between atoms: _538  and  _539
REMARK  220  A    between atoms: _539  and  _540
REMARK  221  A    between atoms: _543  and  _545
REMARK  222  A    between atoms: _545  and  _546
REMARK  223  A    between atoms: _545  and  _548
REMARK  224  A    between atoms: _548  and  _549
REMARK  225  A    between atoms: _554  and  _556
REMARK  226  A    between atoms: _556  and  _557
REMARK  227  A    between atoms: _556  and  _559
REMARK  228  A    between atoms: _559  and  _560
REMARK  229  A    between atoms: _563  and  _565
REMARK  230  A    between atoms: _565  and  _566
REMARK  231  A    between atoms: _565  and  _568
REMARK  232  A    between atoms: _568  and  _569
REMARK  233  A    between atoms: _575  and  _577
REMARK  234  A    between atoms: _577  and  _578
REMARK  235  A    between atoms: _577  and  _580
REMARK  236  A    between atoms: _580  and  _581
REMARK  237  A    between atoms: _587  and  _589
REMARK  238  A    between atoms: _589  and  _590
REMARK  239  A    between atoms: _589  and  _592
REMARK  240  A    between atoms: _592  and  _593
REMARK  241  A    between atoms: _596  and  _598
REMARK  242  A    between atoms: _598  and  _599
REMARK  243  A    between atoms: _598  and  _601
REMARK  244  A    between atoms: _601  and  _602
REMARK  245  A    between atoms: _605  and  _607
REMARK  246  A    between atoms: _607  and  _608
REMARK  247  A    between atoms: _607  and  _610
REMARK  248  A    between atoms: _610  and  _611
REMARK                            x       y       z     vdW  Elec       q    Type
REMARK                         _______ _______ _______ _____ _____    ______ ____
ROOT
ATOM      1  CA  LEU A   6      70.547  49.870  26.213  0.00  0.00    +0.149 C 
ENDROOT
BRANCH   1   2
ATOM      2  C   LEU A   6      71.912  49.247  26.438  0.00  0.00    +0.241 C 
ATOM      3  N   GLU A   7      72.737  49.913  27.240  0.00  0.00    -0.297 N 
ATOM      4  H   GLU A   7      72.426  50.816  27.651  0.00  0.00    +0.150 HD
ATOM      5  O   LEU A   6      72.212  48.183  25.899  0.00  0.00    -0.273 OA
BRANCH   3   6
ATOM      6  CA  GLU A   7      74.069  49.406  27.557  0.00  0.00    +0.149 C 
BRANCH   6   7
ATOM      7  C   GLU A   7      73.946  48.067  28.258  0.00  0.00    +0.241 C 
ATOM      8  N   HIS A   8      73.021  47.967  29.213  0.00  0.00    -0.297 N 
ATOM      9  H   HIS A   8      72.446  48.802  29.445  0.00  0.00    +0.150 HD
ATOM     10  O   GLU A   7      74.699  47.138  27.960  0.00  0.00    -0.273 OA
BRANCH   8  11
ATOM     11  CA  HIS A   8      72.787  46.721  29.946  0.00  0.00    +0.155 C 
BRANCH  11  12
ATOM     12  C   HIS A   8      72.351  45.637  28.964  0.00  0.00    +0.241 C 
ATOM     13  O   HIS A   8      72.804  44.490  29.050  0.00  0.00    -0.273 OA
ATOM     14  N   LEU A   9      71.456  45.980  28.037  0.00  0.00    -0.297 N 
ATOM     15  H   LEU A   9      71.091  46.954  28.022  0.00  0.00    +0.150 HD
BRANCH  14  16
ATOM     16  CA  LEU A   9      70.974  45.025  27.042  0.00  0.00    +0.149 C 
BRANCH  16  17
ATOM     17  C   LEU A   9      72.099  44.492  26.169  0.00  0.00    +0.241 C 
ATOM     18  O   LEU A   9      72.145  43.292  25.887  0.00  0.00    -0.273 OA
ATOM     19  N   PHE A  10      73.004  45.355  25.714  0.00  0.00    -0.298 N 
ATOM     20  H   PHE A  10      72.921  46.365  25.949  0.00  0.00    +0.150 HD
BRANCH  19  21
ATOM     21  CA  PHE A  10      74.114  44.889  24.885  0.00  0.00    +0.141 C 
BRANCH  21  22
ATOM     22  C   PHE A  10      75.044  43.985  25.684  0.00  0.00    +0.227 C 
ATOM     23  O   PHE A  10      75.636  43.055  25.140  0.00  0.00    -0.286 OA
ENDBRANCH  21  22
BRANCH  21  24
ATOM     24  CB  PHE A  10      74.894  46.061  24.281  0.00  0.00    +0.054 C 
BRANCH  24  25
ATOM     25  CG  PHE A  10      74.240  46.645  23.061  0.00  0.00    -0.020 A 
ATOM     26  CD2 PHE A  10      73.739  47.938  23.082  0.00  0.00    -0.004 A 
ATOM     27  CE2 PHE A  10      73.127  48.487  21.962  0.00  0.00    -0.000 A 
ATOM     28  CZ  PHE A  10      73.011  47.729  20.800  0.00  0.00    -0.000 A 
ATOM     29  CE1 PHE A  10      73.508  46.431  20.765  0.00  0.00    -0.000 A 
ATOM     30  CD1 PHE A  10      74.121  45.895  21.893  0.00  0.00    -0.004 A 
ENDBRANCH  24  25
ENDBRANCH  21  24
ENDBRANCH  19  21
ENDBRANCH  16  17
BRANCH  16  31
ATOM     31  CB  LEU A   9      69.916  45.651  26.138  0.00  0.00    +0.029 C 
BRANCH  31  32
ATOM     32  CG  LEU A   9      68.546  45.885  26.769  0.00  0.00    +0.002 C 
ATOM     33  CD2 LEU A   9      67.885  44.539  27.072  0.00  0.00    +0.000 C 
ATOM     34  CD1 LEU A   9      67.689  46.708  25.824  0.00  0.00    +0.000 C 
ENDBRANCH  31  32
ENDBRANCH  16  31
ENDBRANCH  14  16
ENDBRANCH  11  12
BRANCH  11  35
ATOM     35  CB  HIS A   8      71.691  46.903  31.011  0.00  0.00    +0.076 C 
BRANCH  35  36
ATOM     36  CG  HIS A   8      72.170  47.560  32.272  0.00  0.00    +0.082 A 
ATOM     37  ND1 HIS A   8      72.913  46.900  33.225  0.00  0.00    -0.227 NA
ATOM     38  CE1 HIS A   8      73.166  47.718  34.230  0.00  0.00    +0.199 A 
ATOM     39  NE2 HIS A   8      72.615  48.891  33.962  0.00  0.00    -0.221 NA
ATOM     40  CD2 HIS A   8      71.983  48.817  32.743  0.00  0.00    +0.115 A 
ENDBRANCH  35  36
ENDBRANCH  11  35
ENDBRANCH   8  11
ENDBRANCH   6   7
BRANCH   6  41
ATOM     41  CB  GLU A   7      74.819  50.374  28.468  0.00  0.00    +0.041 C 
BRANCH  41  42
ATOM     42  CG  GLU A   7      75.218  51.666  27.814  0.00  0.00    +0.116 C 
BRANCH  42  43
ATOM     43  CD  GLU A   7      75.788  52.646  28.813  0.00  0.00    +0.365 C 
ATOM     44  OE2 GLU A   7      76.660  52.242  29.611  0.00  0.00    -0.246 OA
ATOM     45  OE1 GLU A   7      75.363  53.820  28.808  0.00  0.00    -0.246 OA
ENDBRANCH  42  43
ENDBRANCH  41  42
ENDBRANCH   6  41
ENDBRANCH   3   6
ENDBRANCH   1   2
BRANCH   1  48
ATOM     46  C   CYS A   5      69.780  49.740  28.518  0.00  0.00    +0.242 C 
ATOM     47  O   CYS A   5      69.928  48.505  28.533  0.00  0.00    -0.273 OA
ATOM     48  N   LEU A   6      70.064  50.476  27.446  0.00  0.00    -0.297 N 
ATOM     49  H   LEU A   6      69.938  51.507  27.490  0.00  0.00    +0.150 HD
BRANCH  46  50
ATOM     50  CA  CYS A   5      69.296  50.485  29.761  0.00  0.00    +0.160 C 
BRANCH  50  53
ATOM     51  C   LYS A   4      71.294  51.744  30.129  0.00  0.00    +0.241 C 
ATOM     52  O   LYS A   4      71.934  50.697  30.200  0.00  0.00    -0.273 OA
ATOM     53  N   CYS A   5      69.993  51.748  29.910  0.00  0.00    -0.296 N 
ATOM     54  H   CYS A   5      69.473  52.646  29.845  0.00  0.00    +0.150 HD
BRANCH  51  55
ATOM     55  CA  LYS A   4      71.970  53.091  30.291  0.00  0.00    +0.149 C 
BRANCH  55  57
ATOM     56  C   LEU A   3      71.596  53.957  28.059  0.00  0.00    +0.241 C 
ATOM     57  N   LYS A   4      71.433  54.077  29.370  0.00  0.00    -0.297 N 
ATOM     58  H   LYS A   4      70.910  54.894  29.746  0.00  0.00    +0.150 HD
ATOM     59  O   LEU A   3      72.207  53.017  27.540  0.00  0.00    -0.273 OA
BRANCH  56  60
ATOM     60  CA  LEU A   3      70.980  55.031  27.188  0.00  0.00    +0.149 C 
BRANCH  60  62
ATOM     61  C   GLY A   2      68.648  54.576  27.525  0.00  0.00    +0.243 C 
ATOM     62  N   LEU A   3      69.650  55.447  27.617  0.00  0.00    -0.297 N 
ATOM     63  H   LEU A   3      69.488  56.405  27.987  0.00  0.00    +0.150 HD
ATOM     64  O   GLY A   2      68.820  53.411  27.138  0.00  0.00    -0.273 OA
BRANCH  61  65
ATOM     65  CA  GLY A   2      67.269  55.058  27.952  0.00  0.00    +0.176 C 
BRANCH  65  68
ATOM     66  C   ILE A   1      67.882  55.359  30.257  0.00  0.00    +0.238 C 
ATOM     67  O   ILE A   1      68.256  54.194  30.339  0.00  0.00    -0.274 OA
ATOM     68  N   GLY A   2      67.371  55.872  29.145  0.00  0.00    -0.296 N 
ATOM     69  H   GLY A   2      67.044  56.859  29.130  0.00  0.00    +0.150 HD
BRANCH  66  70
ATOM     70  CA  ILE A   1      68.012  56.311  31.447  0.00  0.00    +0.145 C 
BRANCH  70  71
ATOM     71  N   ILE A   1      68.454  57.618  30.989  0.00  0.00    -0.238 NA
ATOM     72  H   ILE A   1      67.819  58.436  31.086  0.00  0.00    +0.142 HD
ENDBRANCH  70  71
BRANCH  70  73
ATOM     73  CB  ILE A   1      66.683  56.435  32.246  0.00  0.00    +0.025 C 
ATOM     74  CG2 ILE A   1      66.016  55.078  32.378  0.00  0.00    +0.002 C 
BRANCH  73  75
ATOM     75  CG1 ILE A   1      66.986  56.991  33.642  0.00  0.00    +0.002 C 
ATOM     76  CD1 ILE A   1      65.747  57.401  34.451  0.00  0.00    +0.000 C 
ENDBRANCH  73  75
ENDBRANCH  70  73
ENDBRANCH  66  70
ENDBRANCH  65  68
ENDBRANCH  61  65
ENDBRANCH  60  62
BRANCH  60  77
ATOM     77  CB  LEU A   3      71.927  56.239  27.094  0.00  0.00    +0.029 C 
BRANCH  77  78
ATOM     78  CG  LEU A   3      71.661  57.203  25.937  0.00  0.00    +0.002 C 
ATOM     79  CD2 LEU A   3      72.260  58.575  26.270  0.00  0.00    +0.000 C 
ATOM     80  CD1 LEU A   3      72.230  56.639  24.625  0.00  0.00    +0.000 C 
ENDBRANCH  77  78
ENDBRANCH  60  77
ENDBRANCH  56  60
ENDBRANCH  55  57
BRANCH  55  81
ATOM     81  CB  LYS A   4      71.806  53.596  31.739  0.00  0.00    +0.029 C 
BRANCH  81  82
ATOM     82  CG  LYS A   4      72.201  52.581  32.809  0.00  0.00    +0.000 C 
BRANCH  82  83
ATOM     83  CD  LYS A   4      73.645  52.137  32.673  0.00  0.00    -0.024 C 
BRANCH  83  84
ATOM     84  CE  LYS A   4      74.604  53.215  33.129  0.00  0.00    -0.086 C 
BRANCH  84  85
ATOM     85  NZ  LYS A   4      75.998  52.704  33.120  0.00  0.00    +0.380 N 
ATOM     86  HZ1 LYS A   4      76.072  51.890  33.763  0.00  0.00    -0.089 HD
ATOM     87  HZ2 LYS A   4      76.644  53.456  33.435  0.00  0.00    -0.089 HD
ATOM     88  HZ3 LYS A   4      76.252  52.410  32.155  0.00  0.00    -0.089 HD
ENDBRANCH  84  85
ENDBRANCH  83  84
ENDBRANCH  82  83
ENDBRANCH  81  82
ENDBRANCH  55  81
ENDBRANCH  51  55
ENDBRANCH  50  53
BRANCH  50  89
ATOM     89  CB  CYS A   5      67.792  50.721  29.708  0.00  0.00    +0.098 C 
ATOM     90  SG  CYS A   5      67.018  51.036  31.319  0.00  0.00    -0.080 S 
ENDBRANCH  50  89
ENDBRANCH  46  50
ENDBRANCH   1  48
BRANCH   1  91
ATOM     91  CB  LEU A   6      70.615  50.918  25.099  0.00  0.00    +0.029 C 
BRANCH  91  92
ATOM     92  CG  LEU A   6      69.400  51.004  24.182  0.00  0.00    +0.002 C 
ATOM     93  CD2 LEU A   6      69.227  49.673  23.436  0.00  0.00    +0.000 C 
ATOM     94  CD1 LEU A   6      69.587  52.174  23.213  0.00  0.00    +0.000 C 
ENDBRANCH  91  92
ENDBRANCH   1  91
TORSDOF 41
REMARK  Name = ../refined-set-2016/4pp3/4pp3_pocket.pdb
REMARK  248 active torsions:
REMARK  status: ('A' for Active; 'I' for Inactive)
REMARK    1  A    between atoms: _1  and  _3
REMARK    2  A    between atoms: _3  and  _4
REMARK    3  A    between atoms: _3  and  _6
REMARK    4  A    between atoms: _6  and  _7
REMARK    5  A    between atoms: _7  and  _8
REMARK    6  A    between atoms: _12  and  _13
REMARK    7  A    between atoms: _18  and  _20
REMARK    8  A    between atoms: _20  and  _21
REMARK    9  A    between atoms: _20  and  _23
REMARK   10  A    between atoms: _26  and  _28
REMARK   11  A    between atoms: _28  and  _29
REMARK   12  A    between atoms: _28  and  _31
REMARK   13  A    between atoms: _31  and  _32
REMARK   14  A    between atoms: _35  and  _37
REMARK   15  A    between atoms: _37  and  _38
REMARK   16  A    between atoms: _37  and  _40
REMARK   17  A    between atoms: _40  and  _41
REMARK   18  A    between atoms: _46  and  _48
REMARK   19  A    between atoms: _48  and  _49
REMARK   20  A    between atoms: _48  and  _51
REMARK   21  A    between atoms: _51  and  _52
REMARK   22  A    between atoms: _55  and  _57
REMARK   23  A    between atoms: _57  and  _58
REMARK   24  A    between atoms: _57  and  _60
REMARK   25  A    between atoms: _62  and  _64
REMARK   26  A    between atoms: _64  and  _65
REMARK   27  A    between atoms: _64  and  _67
REMARK   28  A    between atoms: _67  and  _68
REMARK   29  A    between atoms: _68  and  _69
REMARK   30  A    between atoms: _74  and  _76
REMARK   31  A    between atoms: _76  and  _77
REMARK   32  A    between atoms: _80  and  _82
REMARK   33  A    between atoms: _82  and  _83
REMARK   34  A    between atoms: _86  and  _88
REMARK   35  A    between atoms: _88  and  _89
REMARK   36  A    between atoms: _88  and  _91
REMARK   37  A    between atoms: _91  and  _92
REMARK   38  A    between atoms: _95  and  _97
REMARK   39  A    between atoms: _97  and  _98
REMARK   40  A    between atoms: _97  and  _100
REMARK   41  A    between atoms: _100  and  _101
REMARK   42  A    between atoms: _101  and  _102
REMARK   43  A    between atoms: _102  and  _103
REMARK   44  A    between atoms: _103  and  _104
REMARK   45  A    between atoms: _108  and  _110
REMARK   46  A    between atoms: _110  and  _111
REMARK   47  A    between atoms: _110  and  _113
REMARK   48  A    between atoms: _113  and  _114
REMARK   49  A    between atoms: _114  and  _115
REMARK   50  A    between atoms: _120  and  _122
REMARK   51  A    between atoms: _122  and  _123
REMARK   52  A    between atoms: _122  and  _125
REMARK   53  A    between atoms: _125  and  _126
REMARK   54  A    between atoms: _129  and  _131
REMARK   55  A    between atoms: _131  and  _132
REMARK   56  A    between atoms: _131  and  _134
REMARK   57  A    between atoms: _134  and  _135
REMARK   58  A    between atoms: _138  and  _140
REMARK   59  A    between atoms: _140  and  _141
REMARK   60  A    between atoms: _140  and  _143
REMARK   61  A    between atoms: _143  and  _144
REMARK   62  A    between atoms: _154  and  _156
REMARK   63  A    between atoms: _156  and  _157
REMARK   64  A    between atoms: _156  and  _159
REMARK   65  A    between atoms: _159  and  _160
REMARK   66  A    between atoms: _165  and  _167
REMARK   67  A    between atoms: _167  and  _168
REMARK   68  A    between atoms: _167  and  _170
REMARK   69  A    between atoms: _170  and  _171
REMARK   70  A    between atoms: _171  and  _172
REMARK   71  A    between atoms: _175  and  _177
REMARK   72  A    between atoms: _177  and  _178
REMARK   73  A    between atoms: _177  and  _180
REMARK   74  A    between atoms: _180  and  _181
REMARK   75  A    between atoms: _184  and  _186
REMARK   76  A    between atoms: _186  and  _187
REMARK   77  A    between atoms: _186  and  _189
REMARK   78  A    between atoms: _189  and  _190
REMARK   79  A    between atoms: _193  and  _195
REMARK   80  A    between atoms: _195  and  _196
REMARK   81  A    between atoms: _195  and  _198
REMARK   82  A    between atoms: _198  and  _199
REMARK   83  A    between atoms: _202  and  _204
REMARK   84  A    between atoms: _204  and  _205
REMARK   85  A    between atoms: _208  and  _210
REMARK   86  A    between atoms: _210  and  _211
REMARK   87  A    between atoms: _210  and  _213
REMARK   88  A    between atoms: _213  and  _214
REMARK   89  A    between atoms: _216  and  _218
REMARK   90  A    between atoms: _218  and  _219
REMARK   91  A    between atoms: _218  and  _221
REMARK   92  A    between atoms: _221  and  _222
REMARK   93  A    between atoms: _228  and  _230
REMARK   94  A    between atoms: _230  and  _231
REMARK   95  A    between atoms: _230  and  _233
REMARK   96  A    between atoms: _233  and  _234
REMARK   97  A    between atoms: _236  and  _238
REMARK   98  A    between atoms: _238  and  _239
REMARK   99  A    between atoms: _238  and  _241
REMARK  100  A    between atoms: _241  and  _242
REMARK  101  A    between atoms: _242  and  _243
REMARK  102  A    between atoms: _243  and  _244
REMARK  103  A    between atoms: _253  and  _255
REMARK  104  A    between atoms: _255  and  _256
REMARK  105  A    between atoms: _255  and  _258
REMARK  106  A    between atoms: _258  and  _259
REMARK  107  A    between atoms: _261  and  _263
REMARK  108  A    between atoms: _263  and  _264
REMARK  109  A    between atoms: _263  and  _266
REMARK  110  A    between atoms: _266  and  _267
REMARK  111  A    between atoms: _270  and  _272
REMARK  112  A    between atoms: _272  and  _273
REMARK  113  A    between atoms: _272  and  _275
REMARK  114  A    between atoms: _275  and  _276
REMARK  115  A    between atoms: _279  and  _281
REMARK  116  A    between atoms: _281  and  _282
REMARK  117  A    between atoms: _281  and  _284
REMARK  118  A    between atoms: _284  and  _285
REMARK  119  A    between atoms: _288  and  _290
REMARK  120  A    between atoms: _290  and  _291
REMARK  121  A    between atoms: _294  and  _296
REMARK  122  A    between atoms: _296  and  _297
REMARK  123  A    between atoms: _296  and  _299
REMARK  124  A    between atoms: _299  and  _300
REMARK  125  A    between atoms: _303  and  _305
REMARK  126  A    between atoms: _305  and  _306
REMARK  127  A    between atoms: _308  and  _310
REMARK  128  A    between atoms: _310  and  _311
REMARK  129  A    between atoms: _310  and  _313
REMARK  130  A    between atoms: _313  and  _314
REMARK  131  A    between atoms: _317  and  _319
REMARK  132  A    between atoms: _319  and  _320
REMARK  133  A    between atoms: _319  and  _322
REMARK  134  A    between atoms: _325  and  _327
REMARK  135  A    between atoms: _327  and  _328
REMARK  136  A    between atoms: _327  and  _330
REMARK  137  A    between atoms: _330  and  _331
REMARK  138  A    between atoms: _336  and  _338
REMARK  139  A    between atoms: _338  and  _339
REMARK  140  A    between atoms: _338  and  _341
REMARK  141  A    between atoms: _341  and  _342
REMARK  142  A    between atoms: _342  and  _343
REMARK  143  A    between atoms: _343  and  _344
REMARK  144  A    between atoms: _353  and  _355
REMARK  145  A    between atoms: _355  and  _356
REMARK  146  A    between atoms: _359  and  _361
REMARK  147  A    between atoms: _361  and  _362
REMARK  148  A    between atoms: _361  and  _364
REMARK  149  A    between atoms: _364  and  _365
REMARK  150  A    between atoms: _370  and  _372
REMARK  151  A    between atoms: _372  and  _373
REMARK  152  A    between atoms: _376  and  _378
REMARK  153  A    between atoms: _378  and  _379
REMARK  154  A    between atoms: _381  and  _383
REMARK  155  A    between atoms: _383  and  _384
REMARK  156  A    between atoms: _383  and  _386
REMARK  157  A    between atoms: _389  and  _391
REMARK  158  A    between atoms: _391  and  _392
REMARK  159  A    between atoms: _394  and  _396
REMARK  160  A    between atoms: _396  and  _397
REMARK  161  A    between atoms: _400  and  _402
REMARK  162  A    between atoms: _402  and  _403
REMARK  163  A    between atoms: _402  and  _405
REMARK  164  A    between atoms: _405  and  _406
REMARK  165  A    between atoms: _409  and  _411
REMARK  166  A    between atoms: _411  and  _412
REMARK  167  A    between atoms: _411  and  _414
REMARK  168  A    between atoms: _414  and  _415
REMARK  169  A    between atoms: _421  and  _423
REMARK  170  A    between atoms: _423  and  _424
REMARK  171  A    between atoms: _423  and  _426
REMARK  172  A    between atoms: _426  and  _427
REMARK  173  A    between atoms: _430  and  _432
REMARK  174  A    between atoms: _432  and  _433
REMARK  175  A    between atoms: _432  and  _435
REMARK  176  A    between atoms: _435  and  _436
REMARK  177  A    between atoms: _436  and  _437
REMARK  178  A    between atoms: _437  and  _438
REMARK  179  A    between atoms: _447  and  _449
REMARK  180  A    between atoms: _449  and  _450
REMARK  181  A    between atoms: _449  and  _452
REMARK  182  A    between atoms: _455  and  _457
REMARK  183  A    between atoms: _457  and  _458
REMARK  184  A    between atoms: _457  and  _460
REMARK  185  A    between atoms: _460  and  _461
REMARK  186  A    between atoms: _464  and  _466
REMARK  187  A    between atoms: _466  and  _467
REMARK  188  A    between atoms: _466  and  _469
REMARK  189  A    between atoms: _469  and  _470
REMARK  190  A    between atoms: _470  and  _471
REMARK  191  A    between atoms: _471  and  _472
REMARK  192  A    between atoms: _481  and  _483
REMARK  193  A    between atoms: _483  and  _484
REMARK  194  A    between atoms: _483  and  _486
REMARK  195  A    between atoms: _486  and  _487
REMARK  196  A    between atoms: _490  and  _492
REMARK  197  A    between atoms: _492  and  _493
REMARK  198  A    between atoms: _495  and  _497
REMARK  199  A    between atoms: _497  and  _498
REMARK  200  A    between atoms: _497  and  _500
REMARK  201  A    between atoms: _500  and  _501
REMARK  202  A    between atoms: _504  and  _506
REMARK  203  A    between atoms: _506  and  _507
REMARK  204  A    between atoms: _506  and  _509
REMARK  205  A    between atoms: _509  and  _510
REMARK  206  A    between atoms: _510  and  _511
REMARK  207  A    between atoms: _511  and  _512
REMARK  208  A    between atoms: _512  and  _513
REMARK  209  A    between atoms: _517  and  _519
REMARK  210  A    between atoms: _519  and  _520
REMARK  211  A    between atoms: _519  and  _522
REMARK  212  A    between atoms: _524  and  _526
REMARK  213  A    between atoms: _526  and  _527
REMARK  214  A    between atoms: _526  and  _529
REMARK  215  A    between atoms: _529  and  _530
REMARK  216  A    between atoms: _533  and  _535
REMARK  217  A    between atoms: _535  and  _536
REMARK  218  A    between atoms: _535  and  _538
REMARK  219  A    between atoms: _538  and  _539
REMARK  220  A    between atoms: _539  and  _540
REMARK  221  A    between atoms: _543  and  _545
REMARK  222  A    between atoms: _545  and  _546
REMARK  223  A    between atoms: _545  and  _548
REMARK  224  A    between atoms: _548  and  _549
REMARK  225  A    between atoms: _554  and  _556
REMARK  226  A    between atoms: _556  and  _557
REMARK  227  A    between atoms: _556  and  _559
REMARK  228  A    between atoms: _559  and  _560
REMARK  229  A    between atoms: _563  and  _565
REMARK  230  A    between atoms: _565  and  _566
REMARK  231  A    between atoms: _565  and  _568
REMARK  232  A    between atoms: _568  and  _569
REMARK  233  A    between atoms: _575  and  _577
REMARK  234  A    between atoms: _577  and  _578
REMARK  235  A    between atoms: _577  and  _580
REMARK  236  A    between atoms: _580  and  _581
REMARK  237  A    between atoms: _587  and  _589
REMARK  238  A    between atoms: _589  and  _590
REMARK  239  A    between atoms: _589  and  _592
REMARK  240  A    between atoms: _592  and  _593
REMARK  241  A    between atoms: _596  and  _598
REMARK  242  A    between atoms: _598  and  _599
REMARK  243  A    between atoms: _598  and  _601
REMARK  244  A    between atoms: _601  and  _602
REMARK  245  A    between atoms: _605  and  _607
REMARK  246  A    between atoms: _607  and  _608
REMARK  247  A    between atoms: _607  and  _610
REMARK  248  A    between atoms: _610  and  _611
REMARK                            x       y       z     vdW  Elec       q    Type
REMARK                         _______ _______ _______ _____ _____    ______ ____
ROOT
ATOM      1  CB  PHE A   1      71.828  41.083  28.623  0.00  0.00    +0.051 C 
ENDROOT
BRANCH   1   2
ATOM      2  CG  PHE A   1      71.576  41.873  29.893  0.00  0.00    -0.020 A 
ATOM      3  CD2 PHE A   1      72.516  41.893  30.922  0.00  0.00    -0.004 A 
ATOM      4  CE2 PHE A   1      72.280  42.597  32.102  0.00  0.00    -0.000 A 
ATOM      5  CZ  PHE A   1      71.094  43.300  32.268  0.00  0.00    -0.000 A 
ATOM      6  CE1 PHE A   1      70.142  43.295  31.248  0.00  0.00    -0.000 A 
ATOM      7  CD1 PHE A   1      70.385  42.581  30.070  0.00  0.00    -0.004 A 
ENDBRANCH   1   2
BRANCH   1   8
ATOM      8  CA  PHE A   1      73.309  40.783  28.358  0.00  0.00    +0.137 C 
BRANCH   8   9
ATOM      9  N   PHE A   1      74.043  42.031  28.169  0.00  0.00    -0.239 NA
ATOM     10  H   PHE A   1      73.519  42.929  28.145  0.00  0.00    +0.142 HD
ENDBRANCH   8   9
BRANCH   8  11
ATOM     11  C   PHE A   1      73.461  39.919  27.107  0.00  0.00    +0.224 C 
ATOM     12  O   PHE A   1      73.641  38.696  27.190  0.00  0.00    -0.287 OA
ENDBRANCH   8  11
ENDBRANCH   1   8
TORSDOF 4
REMARK  Name = ../refined-set-2016/4pp3/4pp3_pocket.pdb
REMARK  248 active torsions:
REMARK  status: ('A' for Active; 'I' for Inactive)
REMARK    1  A    between atoms: _1  and  _3
REMARK    2  A    between atoms: _3  and  _4
REMARK    3  A    between atoms: _3  and  _6
REMARK    4  A    between atoms: _6  and  _7
REMARK    5  A    between atoms: _7  and  _8
REMARK    6  A    between atoms: _12  and  _13
REMARK    7  A    between atoms: _18  and  _20
REMARK    8  A    between atoms: _20  and  _21
REMARK    9  A    between atoms: _20  and  _23
REMARK   10  A    between atoms: _26  and  _28
REMARK   11  A    between atoms: _28  and  _29
REMARK   12  A    between atoms: _28  and  _31
REMARK   13  A    between atoms: _31  and  _32
REMARK   14  A    between atoms: _35  and  _37
REMARK   15  A    between atoms: _37  and  _38
REMARK   16  A    between atoms: _37  and  _40
REMARK   17  A    between atoms: _40  and  _41
REMARK   18  A    between atoms: _46  and  _48
REMARK   19  A    between atoms: _48  and  _49
REMARK   20  A    between atoms: _48  and  _51
REMARK   21  A    between atoms: _51  and  _52
REMARK   22  A    between atoms: _55  and  _57
REMARK   23  A    between atoms: _57  and  _58
REMARK   24  A    between atoms: _57  and  _60
REMARK   25  A    between atoms: _62  and  _64
REMARK   26  A    between atoms: _64  and  _65
REMARK   27  A    between atoms: _64  and  _67
REMARK   28  A    between atoms: _67  and  _68
REMARK   29  A    between atoms: _68  and  _69
REMARK   30  A    between atoms: _74  and  _76
REMARK   31  A    between atoms: _76  and  _77
REMARK   32  A    between atoms: _80  and  _82
REMARK   33  A    between atoms: _82  and  _83
REMARK   34  A    between atoms: _86  and  _88
REMARK   35  A    between atoms: _88  and  _89
REMARK   36  A    between atoms: _88  and  _91
REMARK   37  A    between atoms: _91  and  _92
REMARK   38  A    between atoms: _95  and  _97
REMARK   39  A    between atoms: _97  and  _98
REMARK   40  A    between atoms: _97  and  _100
REMARK   41  A    between atoms: _100  and  _101
REMARK   42  A    between atoms: _101  and  _102
REMARK   43  A    between atoms: _102  and  _103
REMARK   44  A    between atoms: _103  and  _104
REMARK   45  A    between atoms: _108  and  _110
REMARK   46  A    between atoms: _110  and  _111
REMARK   47  A    between atoms: _110  and  _113
REMARK   48  A    between atoms: _113  and  _114
REMARK   49  A    between atoms: _114  and  _115
REMARK   50  A    between atoms: _120  and  _122
REMARK   51  A    between atoms: _122  and  _123
REMARK   52  A    between atoms: _122  and  _125
REMARK   53  A    between atoms: _125  and  _126
REMARK   54  A    between atoms: _129  and  _131
REMARK   55  A    between atoms: _131  and  _132
REMARK   56  A    between atoms: _131  and  _134
REMARK   57  A    between atoms: _134  and  _135
REMARK   58  A    between atoms: _138  and  _140
REMARK   59  A    between atoms: _140  and  _141
REMARK   60  A    between atoms: _140  and  _143
REMARK   61  A    between atoms: _143  and  _144
REMARK   62  A    between atoms: _154  and  _156
REMARK   63  A    between atoms: _156  and  _157
REMARK   64  A    between atoms: _156  and  _159
REMARK   65  A    between atoms: _159  and  _160
REMARK   66  A    between atoms: _165  and  _167
REMARK   67  A    between atoms: _167  and  _168
REMARK   68  A    between atoms: _167  and  _170
REMARK   69  A    between atoms: _170  and  _171
REMARK   70  A    between atoms: _171  and  _172
REMARK   71  A    between atoms: _175  and  _177
REMARK   72  A    between atoms: _177  and  _178
REMARK   73  A    between atoms: _177  and  _180
REMARK   74  A    between atoms: _180  and  _181
REMARK   75  A    between atoms: _184  and  _186
REMARK   76  A    between atoms: _186  and  _187
REMARK   77  A    between atoms: _186  and  _189
REMARK   78  A    between atoms: _189  and  _190
REMARK   79  A    between atoms: _193  and  _195
REMARK   80  A    between atoms: _195  and  _196
REMARK   81  A    between atoms: _195  and  _198
REMARK   82  A    between atoms: _198  and  _199
REMARK   83  A    between atoms: _202  and  _204
REMARK   84  A    between atoms: _204  and  _205
REMARK   85  A    between atoms: _208  and  _210
REMARK   86  A    between atoms: _210  and  _211
REMARK   87  A    between atoms: _210  and  _213
REMARK   88  A    between atoms: _213  and  _214
REMARK   89  A    between atoms: _216  and  _218
REMARK   90  A    between atoms: _218  and  _219
REMARK   91  A    between atoms: _218  and  _221
REMARK   92  A    between atoms: _221  and  _222
REMARK   93  A    between atoms: _228  and  _230
REMARK   94  A    between atoms: _230  and  _231
REMARK   95  A    between atoms: _230  and  _233
REMARK   96  A    between atoms: _233  and  _234
REMARK   97  A    between atoms: _236  and  _238
REMARK   98  A    between atoms: _238  and  _239
REMARK   99  A    between atoms: _238  and  _241
REMARK  100  A    between atoms: _241  and  _242
REMARK  101  A    between atoms: _242  and  _243
REMARK  102  A    between atoms: _243  and  _244
REMARK  103  A    between atoms: _253  and  _255
REMARK  104  A    between atoms: _255  and  _256
REMARK  105  A    between atoms: _255  and  _258
REMARK  106  A    between atoms: _258  and  _259
REMARK  107  A    between atoms: _261  and  _263
REMARK  108  A    between atoms: _263  and  _264
REMARK  109  A    between atoms: _263  and  _266
REMARK  110  A    between atoms: _266  and  _267
REMARK  111  A    between atoms: _270  and  _272
REMARK  112  A    between atoms: _272  and  _273
REMARK  113  A    between atoms: _272  and  _275
REMARK  114  A    between atoms: _275  and  _276
REMARK  115  A    between atoms: _279  and  _281
REMARK  116  A    between atoms: _281  and  _282
REMARK  117  A    between atoms: _281  and  _284
REMARK  118  A    between atoms: _284  and  _285
REMARK  119  A    between atoms: _288  and  _290
REMARK  120  A    between atoms: _290  and  _291
REMARK  121  A    between atoms: _294  and  _296
REMARK  122  A    between atoms: _296  and  _297
REMARK  123  A    between atoms: _296  and  _299
REMARK  124  A    between atoms: _299  and  _300
REMARK  125  A    between atoms: _303  and  _305
REMARK  126  A    between atoms: _305  and  _306
REMARK  127  A    between atoms: _308  and  _310
REMARK  128  A    between atoms: _310  and  _311
REMARK  129  A    between atoms: _310  and  _313
REMARK  130  A    between atoms: _313  and  _314
REMARK  131  A    between atoms: _317  and  _319
REMARK  132  A    between atoms: _319  and  _320
REMARK  133  A    between atoms: _319  and  _322
REMARK  134  A    between atoms: _325  and  _327
REMARK  135  A    between atoms: _327  and  _328
REMARK  136  A    between atoms: _327  and  _330
REMARK  137  A    between atoms: _330  and  _331
REMARK  138  A    between atoms: _336  and  _338
REMARK  139  A    between atoms: _338  and  _339
REMARK  140  A    between atoms: _338  and  _341
REMARK  141  A    between atoms: _341  and  _342
REMARK  142  A    between atoms: _342  and  _343
REMARK  143  A    between atoms: _343  and  _344
REMARK  144  A    between atoms: _353  and  _355
REMARK  145  A    between atoms: _355  and  _356
REMARK  146  A    between atoms: _359  and  _361
REMARK  147  A    between atoms: _361  and  _362
REMARK  148  A    between atoms: _361  and  _364
REMARK  149  A    between atoms: _364  and  _365
REMARK  150  A    between atoms: _370  and  _372
REMARK  151  A    between atoms: _372  and  _373
REMARK  152  A    between atoms: _376  and  _378
REMARK  153  A    between atoms: _378  and  _379
REMARK  154  A    between atoms: _381  and  _383
REMARK  155  A    between atoms: _383  and  _384
REMARK  156  A    between atoms: _383  and  _386
REMARK  157  A    between atoms: _389  and  _391
REMARK  158  A    between atoms: _391  and  _392
REMARK  159  A    between atoms: _394  and  _396
REMARK  160  A    between atoms: _396  and  _397
REMARK  161  A    between atoms: _400  and  _402
REMARK  162  A    between atoms: _402  and  _403
REMARK  163  A    between atoms: _402  and  _405
REMARK  164  A    between atoms: _405  and  _406
REMARK  165  A    between atoms: _409  and  _411
REMARK  166  A    between atoms: _411  and  _412
REMARK  167  A    between atoms: _411  and  _414
REMARK  168  A    between atoms: _414  and  _415
REMARK  169  A    between atoms: _421  and  _423
REMARK  170  A    between atoms: _423  and  _424
REMARK  171  A    between atoms: _423  and  _426
REMARK  172  A    between atoms: _426  and  _427
REMARK  173  A    between atoms: _430  and  _432
REMARK  174  A    between atoms: _432  and  _433
REMARK  175  A    between atoms: _432  and  _435
REMARK  176  A    between atoms: _435  and  _436
REMARK  177  A    between atoms: _436  and  _437
REMARK  178  A    between atoms: _437  and  _438
REMARK  179  A    between atoms: _447  and  _449
REMARK  180  A    between atoms: _449  and  _450
REMARK  181  A    between atoms: _449  and  _452
REMARK  182  A    between atoms: _455  and  _457
REMARK  183  A    between atoms: _457  and  _458
REMARK  184  A    between atoms: _457  and  _460
REMARK  185  A    between atoms: _460  and  _461
REMARK  186  A    between atoms: _464  and  _466
REMARK  187  A    between atoms: _466  and  _467
REMARK  188  A    between atoms: _466  and  _469
REMARK  189  A    between atoms: _469  and  _470
REMARK  190  A    between atoms: _470  and  _471
REMARK  191  A    between atoms: _471  and  _472
REMARK  192  A    between atoms: _481  and  _483
REMARK  193  A    between atoms: _483  and  _484
REMARK  194  A    between atoms: _483  and  _486
REMARK  195  A    between atoms: _486  and  _487
REMARK  196  A    between atoms: _490  and  _492
REMARK  197  A    between atoms: _492  and  _493
REMARK  198  A    between atoms: _495  and  _497
REMARK  199  A    between atoms: _497  and  _498
REMARK  200  A    between atoms: _497  and  _500
REMARK  201  A    between atoms: _500  and  _501
REMARK  202  A    between atoms: _504  and  _506
REMARK  203  A    between atoms: _506  and  _507
REMARK  204  A    between atoms: _506  and  _509
REMARK  205  A    between atoms: _509  and  _510
REMARK  206  A    between atoms: _510  and  _511
REMARK  207  A    between atoms: _511  and  _512
REMARK  208  A    between atoms: _512  and  _513
REMARK  209  A    between atoms: _517  and  _519
REMARK  210  A    between atoms: _519  and  _520
REMARK  211  A    between atoms: _519  and  _522
REMARK  212  A    between atoms: _524  and  _526
REMARK  213  A    between atoms: _526  and  _527
REMARK  214  A    between atoms: _526  and  _529
REMARK  215  A    between atoms: _529  and  _530
REMARK  216  A    between atoms: _533  and  _535
REMARK  217  A    between atoms: _535  and  _536
REMARK  218  A    between atoms: _535  and  _538
REMARK  219  A    between atoms: _538  and  _539
REMARK  220  A    between atoms: _539  and  _540
REMARK  221  A    between atoms: _543  and  _545
REMARK  222  A    between atoms: _545  and  _546
REMARK  223  A    between atoms: _545  and  _548
REMARK  224  A    between atoms: _548  and  _549
REMARK  225  A    between atoms: _554  and  _556
REMARK  226  A    between atoms: _556  and  _557
REMARK  227  A    between atoms: _556  and  _559
REMARK  228  A    between atoms: _559  and  _560
REMARK  229  A    between atoms: _563  and  _565
REMARK  230  A    between atoms: _565  and  _566
REMARK  231  A    between atoms: _565  and  _568
REMARK  232  A    between atoms: _568  and  _569
REMARK  233  A    between atoms: _575  and  _577
REMARK  234  A    between atoms: _577  and  _578
REMARK  235  A    between atoms: _577  and  _580
REMARK  236  A    between atoms: _580  and  _581
REMARK  237  A    between atoms: _587  and  _589
REMARK  238  A    between atoms: _589  and  _590
REMARK  239  A    between atoms: _589  and  _592
REMARK  240  A    between atoms: _592  and  _593
REMARK  241  A    between atoms: _596  and  _598
REMARK  242  A    between atoms: _598  and  _599
REMARK  243  A    between atoms: _598  and  _601
REMARK  244  A    between atoms: _601  and  _602
REMARK  245  A    between atoms: _605  and  _607
REMARK  246  A    between atoms: _607  and  _608
REMARK  247  A    between atoms: _607  and  _610
REMARK  248  A    between atoms: _610  and  _611
REMARK                            x       y       z     vdW  Elec       q    Type
REMARK                         _______ _______ _______ _____ _____    ______ ____
ROOT
ATOM      1  CA  THR A   1      69.545  36.053  29.420  0.00  0.00    +0.160 C 
ENDROOT
BRANCH   1   2
ATOM      2  N   THR A   1      70.703  35.187  29.588  0.00  0.00    -0.237 NA
ATOM      3  H   THR A   1      70.611  34.329  30.168  0.00  0.00    +0.142 HD
ENDBRANCH   1   2
BRANCH   1   4
ATOM      4  CB  THR A   1      69.896  37.529  29.688  0.00  0.00    +0.134 C 
ATOM      5  CG2 THR A   1      68.643  38.391  29.645  0.00  0.00    +0.034 C 
BRANCH   4   6
ATOM      6  OG1 THR A   1      70.512  37.647  30.974  0.00  0.00    -0.383 OA
ATOM      7  HG1 THR A   1      71.338  37.102  30.994  0.00  0.00    +0.210 HD
ENDBRANCH   4   6
ENDBRANCH   1   4
BRANCH   1   8
ATOM      8  C   THR A   1      68.987  35.931  28.007  0.00  0.00    +0.227 C 
ATOM      9  O   THR A   1      69.462  36.586  27.077  0.00  0.00    -0.287 OA
ENDBRANCH   1   8
TORSDOF 4
REMARK  Name = ../refined-set-2016/4pp3/4pp3_pocket.pdb
REMARK  248 active torsions:
REMARK  status: ('A' for Active; 'I' for Inactive)
REMARK    1  A    between atoms: _1  and  _3
REMARK    2  A    between atoms: _3  and  _4
REMARK    3  A    between atoms: _3  and  _6
REMARK    4  A    between atoms: _6  and  _7
REMARK    5  A    between atoms: _7  and  _8
REMARK    6  A    between atoms: _12  and  _13
REMARK    7  A    between atoms: _18  and  _20
REMARK    8  A    between atoms: _20  and  _21
REMARK    9  A    between atoms: _20  and  _23
REMARK   10  A    between atoms: _26  and  _28
REMARK   11  A    between atoms: _28  and  _29
REMARK   12  A    between atoms: _28  and  _31
REMARK   13  A    between atoms: _31  and  _32
REMARK   14  A    between atoms: _35  and  _37
REMARK   15  A    between atoms: _37  and  _38
REMARK   16  A    between atoms: _37  and  _40
REMARK   17  A    between atoms: _40  and  _41
REMARK   18  A    between atoms: _46  and  _48
REMARK   19  A    between atoms: _48  and  _49
REMARK   20  A    between atoms: _48  and  _51
REMARK   21  A    between atoms: _51  and  _52
REMARK   22  A    between atoms: _55  and  _57
REMARK   23  A    between atoms: _57  and  _58
REMARK   24  A    between atoms: _57  and  _60
REMARK   25  A    between atoms: _62  and  _64
REMARK   26  A    between atoms: _64  and  _65
REMARK   27  A    between atoms: _64  and  _67
REMARK   28  A    between atoms: _67  and  _68
REMARK   29  A    between atoms: _68  and  _69
REMARK   30  A    between atoms: _74  and  _76
REMARK   31  A    between atoms: _76  and  _77
REMARK   32  A    between atoms: _80  and  _82
REMARK   33  A    between atoms: _82  and  _83
REMARK   34  A    between atoms: _86  and  _88
REMARK   35  A    between atoms: _88  and  _89
REMARK   36  A    between atoms: _88  and  _91
REMARK   37  A    between atoms: _91  and  _92
REMARK   38  A    between atoms: _95  and  _97
REMARK   39  A    between atoms: _97  and  _98
REMARK   40  A    between atoms: _97  and  _100
REMARK   41  A    between atoms: _100  and  _101
REMARK   42  A    between atoms: _101  and  _102
REMARK   43  A    between atoms: _102  and  _103
REMARK   44  A    between atoms: _103  and  _104
REMARK   45  A    between atoms: _108  and  _110
REMARK   46  A    between atoms: _110  and  _111
REMARK   47  A    between atoms: _110  and  _113
REMARK   48  A    between atoms: _113  and  _114
REMARK   49  A    between atoms: _114  and  _115
REMARK   50  A    between atoms: _120  and  _122
REMARK   51  A    between atoms: _122  and  _123
REMARK   52  A    between atoms: _122  and  _125
REMARK   53  A    between atoms: _125  and  _126
REMARK   54  A    between atoms: _129  and  _131
REMARK   55  A    between atoms: _131  and  _132
REMARK   56  A    between atoms: _131  and  _134
REMARK   57  A    between atoms: _134  and  _135
REMARK   58  A    between atoms: _138  and  _140
REMARK   59  A    between atoms: _140  and  _141
REMARK   60  A    between atoms: _140  and  _143
REMARK   61  A    between atoms: _143  and  _144
REMARK   62  A    between atoms: _154  and  _156
REMARK   63  A    between atoms: _156  and  _157
REMARK   64  A    between atoms: _156  and  _159
REMARK   65  A    between atoms: _159  and  _160
REMARK   66  A    between atoms: _165  and  _167
REMARK   67  A    between atoms: _167  and  _168
REMARK   68  A    between atoms: _167  and  _170
REMARK   69  A    between atoms: _170  and  _171
REMARK   70  A    between atoms: _171  and  _172
REMARK   71  A    between atoms: _175  and  _177
REMARK   72  A    between atoms: _177  and  _178
REMARK   73  A    between atoms: _177  and  _180
REMARK   74  A    between atoms: _180  and  _181
REMARK   75  A    between atoms: _184  and  _186
REMARK   76  A    between atoms: _186  and  _187
REMARK   77  A    between atoms: _186  and  _189
REMARK   78  A    between atoms: _189  and  _190
REMARK   79  A    between atoms: _193  and  _195
REMARK   80  A    between atoms: _195  and  _196
REMARK   81  A    between atoms: _195  and  _198
REMARK   82  A    between atoms: _198  and  _199
REMARK   83  A    between atoms: _202  and  _204
REMARK   84  A    between atoms: _204  and  _205
REMARK   85  A    between atoms: _208  and  _210
REMARK   86  A    between atoms: _210  and  _211
REMARK   87  A    between atoms: _210  and  _213
REMARK   88  A    between atoms: _213  and  _214
REMARK   89  A    between atoms: _216  and  _218
REMARK   90  A    between atoms: _218  and  _219
REMARK   91  A    between atoms: _218  and  _221
REMARK   92  A    between atoms: _221  and  _222
REMARK   93  A    between atoms: _228  and  _230
REMARK   94  A    between atoms: _230  and  _231
REMARK   95  A    between atoms: _230  and  _233
REMARK   96  A    between atoms: _233  and  _234
REMARK   97  A    between atoms: _236  and  _238
REMARK   98  A    between atoms: _238  and  _239
REMARK   99  A    between atoms: _238  and  _241
REMARK  100  A    between atoms: _241  and  _242
REMARK  101  A    between atoms: _242  and  _243
REMARK  102  A    between atoms: _243  and  _244
REMARK  103  A    between atoms: _253  and  _255
REMARK  104  A    between atoms: _255  and  _256
REMARK  105  A    between atoms: _255  and  _258
REMARK  106  A    between atoms: _258  and  _259
REMARK  107  A    between atoms: _261  and  _263
REMARK  108  A    between atoms: _263  and  _264
REMARK  109  A    between atoms: _263  and  _266
REMARK  110  A    between atoms: _266  and  _267
REMARK  111  A    between atoms: _270  and  _272
REMARK  112  A    between atoms: _272  and  _273
REMARK  113  A    between atoms: _272  and  _275
REMARK  114  A    between atoms: _275  and  _276
REMARK  115  A    between atoms: _279  and  _281
REMARK  116  A    between atoms: _281  and  _282
REMARK  117  A    between atoms: _281  and  _284
REMARK  118  A    between atoms: _284  and  _285
REMARK  119  A    between atoms: _288  and  _290
REMARK  120  A    between atoms: _290  and  _291
REMARK  121  A    between atoms: _294  and  _296
REMARK  122  A    between atoms: _296  and  _297
REMARK  123  A    between atoms: _296  and  _299
REMARK  124  A    between atoms: _299  and  _300
REMARK  125  A    between atoms: _303  and  _305
REMARK  126  A    between atoms: _305  and  _306
REMARK  127  A    between atoms: _308  and  _310
REMARK  128  A    between atoms: _310  and  _311
REMARK  129  A    between atoms: _310  and  _313
REMARK  130  A    between atoms: _313  and  _314
REMARK  131  A    between atoms: _317  and  _319
REMARK  132  A    between atoms: _319  and  _320
REMARK  133  A    between atoms: _319  and  _322
REMARK  134  A    between atoms: _325  and  _327
REMARK  135  A    between atoms: _327  and  _328
REMARK  136  A    between atoms: _327  and  _330
REMARK  137  A    between atoms: _330  and  _331
REMARK  138  A    between atoms: _336  and  _338
REMARK  139  A    between atoms: _338  and  _339
REMARK  140  A    between atoms: _338  and  _341
REMARK  141  A    between atoms: _341  and  _342
REMARK  142  A    between atoms: _342  and  _343
REMARK  143  A    between atoms: _343  and  _344
REMARK  144  A    between atoms: _353  and  _355
REMARK  145  A    between atoms: _355  and  _356
REMARK  146  A    between atoms: _359  and  _361
REMARK  147  A    between atoms: _361  and  _362
REMARK  148  A    between atoms: _361  and  _364
REMARK  149  A    between atoms: _364  and  _365
REMARK  150  A    between atoms: _370  and  _372
REMARK  151  A    between atoms: _372  and  _373
REMARK  152  A    between atoms: _376  and  _378
REMARK  153  A    between atoms: _378  and  _379
REMARK  154  A    between atoms: _381  and  _383
REMARK  155  A    between atoms: _383  and  _384
REMARK  156  A    between atoms: _383  and  _386
REMARK  157  A    between atoms: _389  and  _391
REMARK  158  A    between atoms: _391  and  _392
REMARK  159  A    between atoms: _394  and  _396
REMARK  160  A    between atoms: _396  and  _397
REMARK  161  A    between atoms: _400  and  _402
REMARK  162  A    between atoms: _402  and  _403
REMARK  163  A    between atoms: _402  and  _405
REMARK  164  A    between atoms: _405  and  _406
REMARK  165  A    between atoms: _409  and  _411
REMARK  166  A    between atoms: _411  and  _412
REMARK  167  A    between atoms: _411  and  _414
REMARK  168  A    between atoms: _414  and  _415
REMARK  169  A    between atoms: _421  and  _423
REMARK  170  A    between atoms: _423  and  _424
REMARK  171  A    between atoms: _423  and  _426
REMARK  172  A    between atoms: _426  and  _427
REMARK  173  A    between atoms: _430  and  _432
REMARK  174  A    between atoms: _432  and  _433
REMARK  175  A    between atoms: _432  and  _435
REMARK  176  A    between atoms: _435  and  _436
REMARK  177  A    between atoms: _436  and  _437
REMARK  178  A    between atoms: _437  and  _438
REMARK  179  A    between atoms: _447  and  _449
REMARK  180  A    between atoms: _449  and  _450
REMARK  181  A    between atoms: _449  and  _452
REMARK  182  A    between atoms: _455  and  _457
REMARK  183  A    between atoms: _457  and  _458
REMARK  184  A    between atoms: _457  and  _460
REMARK  185  A    between atoms: _460  and  _461
REMARK  186  A    between atoms: _464  and  _466
REMARK  187  A    between atoms: _466  and  _467
REMARK  188  A    between atoms: _466  and  _469
REMARK  189  A    between atoms: _469  and  _470
REMARK  190  A    between atoms: _470  and  _471
REMARK  191  A    between atoms: _471  and  _472
REMARK  192  A    between atoms: _481  and  _483
REMARK  193  A    between atoms: _483  and  _484
REMARK  194  A    between atoms: _483  and  _486
REMARK  195  A    between atoms: _486  and  _487
REMARK  196  A    between atoms: _490  and  _492
REMARK  197  A    between atoms: _492  and  _493
REMARK  198  A    between atoms: _495  and  _497
REMARK  199  A    between atoms: _497  and  _498
REMARK  200  A    between atoms: _497  and  _500
REMARK  201  A    between atoms: _500  and  _501
REMARK  202  A    between atoms: _504  and  _506
REMARK  203  A    between atoms: _506  and  _507
REMARK  204  A    between atoms: _506  and  _509
REMARK  205  A    between atoms: _509  and  _510
REMARK  206  A    between atoms: _510  and  _511
REMARK  207  A    between atoms: _511  and  _512
REMARK  208  A    between atoms: _512  and  _513
REMARK  209  A    between atoms: _517  and  _519
REMARK  210  A    between atoms: _519  and  _520
REMARK  211  A    between atoms: _519  and  _522
REMARK  212  A    between atoms: _524  and  _526
REMARK  213  A    between atoms: _526  and  _527
REMARK  214  A    between atoms: _526  and  _529
REMARK  215  A    between atoms: _529  and  _530
REMARK  216  A    between atoms: _533  and  _535
REMARK  217  A    between atoms: _535  and  _536
REMARK  218  A    between atoms: _535  and  _538
REMARK  219  A    between atoms: _538  and  _539
REMARK  220  A    between atoms: _539  and  _540
REMARK  221  A    between atoms: _543  and  _545
REMARK  222  A    between atoms: _545  and  _546
REMARK  223  A    between atoms: _545  and  _548
REMARK  224  A    between atoms: _548  and  _549
REMARK  225  A    between atoms: _554  and  _556
REMARK  226  A    between atoms: _556  and  _557
REMARK  227  A    between atoms: _556  and  _559
REMARK  228  A    between atoms: _559  and  _560
REMARK  229  A    between atoms: _563  and  _565
REMARK  230  A    between atoms: _565  and  _566
REMARK  231  A    between atoms: _565  and  _568
REMARK  232  A    between atoms: _568  and  _569
REMARK  233  A    between atoms: _575  and  _577
REMARK  234  A    between atoms: _577  and  _578
REMARK  235  A    between atoms: _577  and  _580
REMARK  236  A    between atoms: _580  and  _581
REMARK  237  A    between atoms: _587  and  _589
REMARK  238  A    between atoms: _589  and  _590
REMARK  239  A    between atoms: _589  and  _592
REMARK  240  A    between atoms: _592  and  _593
REMARK  241  A    between atoms: _596  and  _598
REMARK  242  A    between atoms: _598  and  _599
REMARK  243  A    between atoms: _598  and  _601
REMARK  244  A    between atoms: _601  and  _602
REMARK  245  A    between atoms: _605  and  _607
REMARK  246  A    between atoms: _607  and  _608
REMARK  247  A    between atoms: _607  and  _610
REMARK  248  A    between atoms: _610  and  _611
REMARK                            x       y       z     vdW  Elec       q    Type
REMARK                         _______ _______ _______ _____ _____    ______ ____
ROOT
ATOM      1  CA  LEU A   1      64.332  42.812  20.765  0.00  0.00    +0.133 C 
ENDROOT
BRANCH   1   2
ATOM      2  N   LEU A   1      63.390  42.078  19.933  0.00  0.00    -0.239 NA
ATOM      3  H   LEU A   1      62.861  41.275  20.330  0.00  0.00    +0.142 HD
ENDBRANCH   1   2
BRANCH   1   4
ATOM      4  C   LEU A   1      65.738  42.651  20.172  0.00  0.00    +0.224 C 
ATOM      5  O   LEU A   1      66.492  43.617  20.069  0.00  0.00    -0.287 OA
ENDBRANCH   1   4
BRANCH   1   6
ATOM      6  CB  LEU A   1      64.256  42.286  22.203  0.00  0.00    +0.025 C 
BRANCH   6   7
ATOM      7  CG  LEU A   1      65.227  42.917  23.211  0.00  0.00    +0.002 C 
ATOM      8  CD2 LEU A   1      65.010  42.300  24.576  0.00  0.00    +0.000 C 
ATOM      9  CD1 LEU A   1      65.022  44.417  23.290  0.00  0.00    +0.000 C 
ENDBRANCH   6   7
ENDBRANCH   1   6
TORSDOF 4
REMARK  Name = ../refined-set-2016/4pp3/4pp3_pocket.pdb
REMARK  248 active torsions:
REMARK  status: ('A' for Active; 'I' for Inactive)
REMARK    1  A    between atoms: _1  and  _3
REMARK    2  A    between atoms: _3  and  _4
REMARK    3  A    between atoms: _3  and  _6
REMARK    4  A    between atoms: _6  and  _7
REMARK    5  A    between atoms: _7  and  _8
REMARK    6  A    between atoms: _12  and  _13
REMARK    7  A    between atoms: _18  and  _20
REMARK    8  A    between atoms: _20  and  _21
REMARK    9  A    between atoms: _20  and  _23
REMARK   10  A    between atoms: _26  and  _28
REMARK   11  A    between atoms: _28  and  _29
REMARK   12  A    between atoms: _28  and  _31
REMARK   13  A    between atoms: _31  and  _32
REMARK   14  A    between atoms: _35  and  _37
REMARK   15  A    between atoms: _37  and  _38
REMARK   16  A    between atoms: _37  and  _40
REMARK   17  A    between atoms: _40  and  _41
REMARK   18  A    between atoms: _46  and  _48
REMARK   19  A    between atoms: _48  and  _49
REMARK   20  A    between atoms: _48  and  _51
REMARK   21  A    between atoms: _51  and  _52
REMARK   22  A    between atoms: _55  and  _57
REMARK   23  A    between atoms: _57  and  _58
REMARK   24  A    between atoms: _57  and  _60
REMARK   25  A    between atoms: _62  and  _64
REMARK   26  A    between atoms: _64  and  _65
REMARK   27  A    between atoms: _64  and  _67
REMARK   28  A    between atoms: _67  and  _68
REMARK   29  A    between atoms: _68  and  _69
REMARK   30  A    between atoms: _74  and  _76
REMARK   31  A    between atoms: _76  and  _77
REMARK   32  A    between atoms: _80  and  _82
REMARK   33  A    between atoms: _82  and  _83
REMARK   34  A    between atoms: _86  and  _88
REMARK   35  A    between atoms: _88  and  _89
REMARK   36  A    between atoms: _88  and  _91
REMARK   37  A    between atoms: _91  and  _92
REMARK   38  A    between atoms: _95  and  _97
REMARK   39  A    between atoms: _97  and  _98
REMARK   40  A    between atoms: _97  and  _100
REMARK   41  A    between atoms: _100  and  _101
REMARK   42  A    between atoms: _101  and  _102
REMARK   43  A    between atoms: _102  and  _103
REMARK   44  A    between atoms: _103  and  _104
REMARK   45  A    between atoms: _108  and  _110
REMARK   46  A    between atoms: _110  and  _111
REMARK   47  A    between atoms: _110  and  _113
REMARK   48  A    between atoms: _113  and  _114
REMARK   49  A    between atoms: _114  and  _115
REMARK   50  A    between atoms: _120  and  _122
REMARK   51  A    between atoms: _122  and  _123
REMARK   52  A    between atoms: _122  and  _125
REMARK   53  A    between atoms: _125  and  _126
REMARK   54  A    between atoms: _129  and  _131
REMARK   55  A    between atoms: _131  and  _132
REMARK   56  A    between atoms: _131  and  _134
REMARK   57  A    between atoms: _134  and  _135
REMARK   58  A    between atoms: _138  and  _140
REMARK   59  A    between atoms: _140  and  _141
REMARK   60  A    between atoms: _140  and  _143
REMARK   61  A    between atoms: _143  and  _144
REMARK   62  A    between atoms: _154  and  _156
REMARK   63  A    between atoms: _156  and  _157
REMARK   64  A    between atoms: _156  and  _159
REMARK   65  A    between atoms: _159  and  _160
REMARK   66  A    between atoms: _165  and  _167
REMARK   67  A    between atoms: _167  and  _168
REMARK   68  A    between atoms: _167  and  _170
REMARK   69  A    between atoms: _170  and  _171
REMARK   70  A    between atoms: _171  and  _172
REMARK   71  A    between atoms: _175  and  _177
REMARK   72  A    between atoms: _177  and  _178
REMARK   73  A    between atoms: _177  and  _180
REMARK   74  A    between atoms: _180  and  _181
REMARK   75  A    between atoms: _184  and  _186
REMARK   76  A    between atoms: _186  and  _187
REMARK   77  A    between atoms: _186  and  _189
REMARK   78  A    between atoms: _189  and  _190
REMARK   79  A    between atoms: _193  and  _195
REMARK   80  A    between atoms: _195  and  _196
REMARK   81  A    between atoms: _195  and  _198
REMARK   82  A    between atoms: _198  and  _199
REMARK   83  A    between atoms: _202  and  _204
REMARK   84  A    between atoms: _204  and  _205
REMARK   85  A    between atoms: _208  and  _210
REMARK   86  A    between atoms: _210  and  _211
REMARK   87  A    between atoms: _210  and  _213
REMARK   88  A    between atoms: _213  and  _214
REMARK   89  A    between atoms: _216  and  _218
REMARK   90  A    between atoms: _218  and  _219
REMARK   91  A    between atoms: _218  and  _221
REMARK   92  A    between atoms: _221  and  _222
REMARK   93  A    between atoms: _228  and  _230
REMARK   94  A    between atoms: _230  and  _231
REMARK   95  A    between atoms: _230  and  _233
REMARK   96  A    between atoms: _233  and  _234
REMARK   97  A    between atoms: _236  and  _238
REMARK   98  A    between atoms: _238  and  _239
REMARK   99  A    between atoms: _238  and  _241
REMARK  100  A    between atoms: _241  and  _242
REMARK  101  A    between atoms: _242  and  _243
REMARK  102  A    between atoms: _243  and  _244
REMARK  103  A    between atoms: _253  and  _255
REMARK  104  A    between atoms: _255  and  _256
REMARK  105  A    between atoms: _255  and  _258
REMARK  106  A    between atoms: _258  and  _259
REMARK  107  A    between atoms: _261  and  _263
REMARK  108  A    between atoms: _263  and  _264
REMARK  109  A    between atoms: _263  and  _266
REMARK  110  A    between atoms: _266  and  _267
REMARK  111  A    between atoms: _270  and  _272
REMARK  112  A    between atoms: _272  and  _273
REMARK  113  A    between atoms: _272  and  _275
REMARK  114  A    between atoms: _275  and  _276
REMARK  115  A    between atoms: _279  and  _281
REMARK  116  A    between atoms: _281  and  _282
REMARK  117  A    between atoms: _281  and  _284
REMARK  118  A    between atoms: _284  and  _285
REMARK  119  A    between atoms: _288  and  _290
REMARK  120  A    between atoms: _290  and  _291
REMARK  121  A    between atoms: _294  and  _296
REMARK  122  A    between atoms: _296  and  _297
REMARK  123  A    between atoms: _296  and  _299
REMARK  124  A    between atoms: _299  and  _300
REMARK  125  A    between atoms: _303  and  _305
REMARK  126  A    between atoms: _305  and  _306
REMARK  127  A    between atoms: _308  and  _310
REMARK  128  A    between atoms: _310  and  _311
REMARK  129  A    between atoms: _310  and  _313
REMARK  130  A    between atoms: _313  and  _314
REMARK  131  A    between atoms: _317  and  _319
REMARK  132  A    between atoms: _319  and  _320
REMARK  133  A    between atoms: _319  and  _322
REMARK  134  A    between atoms: _325  and  _327
REMARK  135  A    between atoms: _327  and  _328
REMARK  136  A    between atoms: _327  and  _330
REMARK  137  A    between atoms: _330  and  _331
REMARK  138  A    between atoms: _336  and  _338
REMARK  139  A    between atoms: _338  and  _339
REMARK  140  A    between atoms: _338  and  _341
REMARK  141  A    between atoms: _341  and  _342
REMARK  142  A    between atoms: _342  and  _343
REMARK  143  A    between atoms: _343  and  _344
REMARK  144  A    between atoms: _353  and  _355
REMARK  145  A    between atoms: _355  and  _356
REMARK  146  A    between atoms: _359  and  _361
REMARK  147  A    between atoms: _361  and  _362
REMARK  148  A    between atoms: _361  and  _364
REMARK  149  A    between atoms: _364  and  _365
REMARK  150  A    between atoms: _370  and  _372
REMARK  151  A    between atoms: _372  and  _373
REMARK  152  A    between atoms: _376  and  _378
REMARK  153  A    between atoms: _378  and  _379
REMARK  154  A    between atoms: _381  and  _383
REMARK  155  A    between atoms: _383  and  _384
REMARK  156  A    between atoms: _383  and  _386
REMARK  157  A    between atoms: _389  and  _391
REMARK  158  A    between atoms: _391  and  _392
REMARK  159  A    between atoms: _394  and  _396
REMARK  160  A    between atoms: _396  and  _397
REMARK  161  A    between atoms: _400  and  _402
REMARK  162  A    between atoms: _402  and  _403
REMARK  163  A    between atoms: _402  and  _405
REMARK  164  A    between atoms: _405  and  _406
REMARK  165  A    between atoms: _409  and  _411
REMARK  166  A    between atoms: _411  and  _412
REMARK  167  A    between atoms: _411  and  _414
REMARK  168  A    between atoms: _414  and  _415
REMARK  169  A    between atoms: _421  and  _423
REMARK  170  A    between atoms: _423  and  _424
REMARK  171  A    between atoms: _423  and  _426
REMARK  172  A    between atoms: _426  and  _427
REMARK  173  A    between atoms: _430  and  _432
REMARK  174  A    between atoms: _432  and  _433
REMARK  175  A    between atoms: _432  and  _435
REMARK  176  A    between atoms: _435  and  _436
REMARK  177  A    between atoms: _436  and  _437
REMARK  178  A    between atoms: _437  and  _438
REMARK  179  A    between atoms: _447  and  _449
REMARK  180  A    between atoms: _449  and  _450
REMARK  181  A    between atoms: _449  and  _452
REMARK  182  A    between atoms: _455  and  _457
REMARK  183  A    between atoms: _457  and  _458
REMARK  184  A    between atoms: _457  and  _460
REMARK  185  A    between atoms: _460  and  _461
REMARK  186  A    between atoms: _464  and  _466
REMARK  187  A    between atoms: _466  and  _467
REMARK  188  A    between atoms: _466  and  _469
REMARK  189  A    between atoms: _469  and  _470
REMARK  190  A    between atoms: _470  and  _471
REMARK  191  A    between atoms: _471  and  _472
REMARK  192  A    between atoms: _481  and  _483
REMARK  193  A    between atoms: _483  and  _484
REMARK  194  A    between atoms: _483  and  _486
REMARK  195  A    between atoms: _486  and  _487
REMARK  196  A    between atoms: _490  and  _492
REMARK  197  A    between atoms: _492  and  _493
REMARK  198  A    between atoms: _495  and  _497
REMARK  199  A    between atoms: _497  and  _498
REMARK  200  A    between atoms: _497  and  _500
REMARK  201  A    between atoms: _500  and  _501
REMARK  202  A    between atoms: _504  and  _506
REMARK  203  A    between atoms: _506  and  _507
REMARK  204  A    between atoms: _506  and  _509
REMARK  205  A    between atoms: _509  and  _510
REMARK  206  A    between atoms: _510  and  _511
REMARK  207  A    between atoms: _511  and  _512
REMARK  208  A    between atoms: _512  and  _513
REMARK  209  A    between atoms: _517  and  _519
REMARK  210  A    between atoms: _519  and  _520
REMARK  211  A    between atoms: _519  and  _522
REMARK  212  A    between atoms: _524  and  _526
REMARK  213  A    between atoms: _526  and  _527
REMARK  214  A    between atoms: _526  and  _529
REMARK  215  A    between atoms: _529  and  _530
REMARK  216  A    between atoms: _533  and  _535
REMARK  217  A    between atoms: _535  and  _536
REMARK  218  A    between atoms: _535  and  _538
REMARK  219  A    between atoms: _538  and  _539
REMARK  220  A    between atoms: _539  and  _540
REMARK  221  A    between atoms: _543  and  _545
REMARK  222  A    between atoms: _545  and  _546
REMARK  223  A    between atoms: _545  and  _548
REMARK  224  A    between atoms: _548  and  _549
REMARK  225  A    between atoms: _554  and  _556
REMARK  226  A    between atoms: _556  and  _557
REMARK  227  A    between atoms: _556  and  _559
REMARK  228  A    between atoms: _559  and  _560
REMARK  229  A    between atoms: _563  and  _565
REMARK  230  A    between atoms: _565  and  _566
REMARK  231  A    between atoms: _565  and  _568
REMARK  232  A    between atoms: _568  and  _569
REMARK  233  A    between atoms: _575  and  _577
REMARK  234  A    between atoms: _577  and  _578
REMARK  235  A    between atoms: _577  and  _580
REMARK  236  A    between atoms: _580  and  _581
REMARK  237  A    between atoms: _587  and  _589
REMARK  238  A    between atoms: _589  and  _590
REMARK  239  A    between atoms: _589  and  _592
REMARK  240  A    between atoms: _592  and  _593
REMARK  241  A    between atoms: _596  and  _598
REMARK  242  A    between atoms: _598  and  _599
REMARK  243  A    between atoms: _598  and  _601
REMARK  244  A    between atoms: _601  and  _602
REMARK  245  A    between atoms: _605  and  _607
REMARK  246  A    between atoms: _607  and  _608
REMARK  247  A    between atoms: _607  and  _610
REMARK  248  A    between atoms: _610  and  _611
REMARK                            x       y       z     vdW  Elec       q    Type
REMARK                         _______ _______ _______ _____ _____    ______ ____
ROOT
ATOM      1  CA  LEU A   1      70.063  45.513  19.097  0.00  0.00    +0.133 C 
ENDROOT
BRANCH   1   2
ATOM      2  N   LEU A   1      68.667  45.590  18.744  0.00  0.00    -0.239 NA
ATOM      3  H   LEU A   1      68.098  44.762  19.012  0.00  0.00    +0.142 HD
ENDBRANCH   1   2
BRANCH   1   4
ATOM      4  C   LEU A   1      71.004  45.344  17.889  0.00  0.00    +0.224 C 
ATOM      5  O   LEU A   1      72.123  45.361  17.983  0.00  0.00    -0.287 OA
ENDBRANCH   1   4
BRANCH   1   6
ATOM      6  CB  LEU A   1      70.287  44.443  20.087  0.00  0.00    +0.025 C 
BRANCH   6   7
ATOM      7  CG  LEU A   1      69.584  44.514  21.396  0.00  0.00    +0.002 C 
ATOM      8  CD2 LEU A   1      69.815  43.362  22.254  0.00  0.00    +0.000 C 
ATOM      9  CD1 LEU A   1      69.730  45.889  22.108  0.00  0.00    +0.000 C 
ENDBRANCH   6   7
ENDBRANCH   1   6
TORSDOF 4
REMARK  Name = ../refined-set-2016/4pp3/4pp3_pocket.pdb
REMARK  248 active torsions:
REMARK  status: ('A' for Active; 'I' for Inactive)
REMARK    1  A    between atoms: _1  and  _3
REMARK    2  A    between atoms: _3  and  _4
REMARK    3  A    between atoms: _3  and  _6
REMARK    4  A    between atoms: _6  and  _7
REMARK    5  A    between atoms: _7  and  _8
REMARK    6  A    between atoms: _12  and  _13
REMARK    7  A    between atoms: _18  and  _20
REMARK    8  A    between atoms: _20  and  _21
REMARK    9  A    between atoms: _20  and  _23
REMARK   10  A    between atoms: _26  and  _28
REMARK   11  A    between atoms: _28  and  _29
REMARK   12  A    between atoms: _28  and  _31
REMARK   13  A    between atoms: _31  and  _32
REMARK   14  A    between atoms: _35  and  _37
REMARK   15  A    between atoms: _37  and  _38
REMARK   16  A    between atoms: _37  and  _40
REMARK   17  A    between atoms: _40  and  _41
REMARK   18  A    between atoms: _46  and  _48
REMARK   19  A    between atoms: _48  and  _49
REMARK   20  A    between atoms: _48  and  _51
REMARK   21  A    between atoms: _51  and  _52
REMARK   22  A    between atoms: _55  and  _57
REMARK   23  A    between atoms: _57  and  _58
REMARK   24  A    between atoms: _57  and  _60
REMARK   25  A    between atoms: _62  and  _64
REMARK   26  A    between atoms: _64  and  _65
REMARK   27  A    between atoms: _64  and  _67
REMARK   28  A    between atoms: _67  and  _68
REMARK   29  A    between atoms: _68  and  _69
REMARK   30  A    between atoms: _74  and  _76
REMARK   31  A    between atoms: _76  and  _77
REMARK   32  A    between atoms: _80  and  _82
REMARK   33  A    between atoms: _82  and  _83
REMARK   34  A    between atoms: _86  and  _88
REMARK   35  A    between atoms: _88  and  _89
REMARK   36  A    between atoms: _88  and  _91
REMARK   37  A    between atoms: _91  and  _92
REMARK   38  A    between atoms: _95  and  _97
REMARK   39  A    between atoms: _97  and  _98
REMARK   40  A    between atoms: _97  and  _100
REMARK   41  A    between atoms: _100  and  _101
REMARK   42  A    between atoms: _101  and  _102
REMARK   43  A    between atoms: _102  and  _103
REMARK   44  A    between atoms: _103  and  _104
REMARK   45  A    between atoms: _108  and  _110
REMARK   46  A    between atoms: _110  and  _111
REMARK   47  A    between atoms: _110  and  _113
REMARK   48  A    between atoms: _113  and  _114
REMARK   49  A    between atoms: _114  and  _115
REMARK   50  A    between atoms: _120  and  _122
REMARK   51  A    between atoms: _122  and  _123
REMARK   52  A    between atoms: _122  and  _125
REMARK   53  A    between atoms: _125  and  _126
REMARK   54  A    between atoms: _129  and  _131
REMARK   55  A    between atoms: _131  and  _132
REMARK   56  A    between atoms: _131  and  _134
REMARK   57  A    between atoms: _134  and  _135
REMARK   58  A    between atoms: _138  and  _140
REMARK   59  A    between atoms: _140  and  _141
REMARK   60  A    between atoms: _140  and  _143
REMARK   61  A    between atoms: _143  and  _144
REMARK   62  A    between atoms: _154  and  _156
REMARK   63  A    between atoms: _156  and  _157
REMARK   64  A    between atoms: _156  and  _159
REMARK   65  A    between atoms: _159  and  _160
REMARK   66  A    between atoms: _165  and  _167
REMARK   67  A    between atoms: _167  and  _168
REMARK   68  A    between atoms: _167  and  _170
REMARK   69  A    between atoms: _170  and  _171
REMARK   70  A    between atoms: _171  and  _172
REMARK   71  A    between atoms: _175  and  _177
REMARK   72  A    between atoms: _177  and  _178
REMARK   73  A    between atoms: _177  and  _180
REMARK   74  A    between atoms: _180  and  _181
REMARK   75  A    between atoms: _184  and  _186
REMARK   76  A    between atoms: _186  and  _187
REMARK   77  A    between atoms: _186  and  _189
REMARK   78  A    between atoms: _189  and  _190
REMARK   79  A    between atoms: _193  and  _195
REMARK   80  A    between atoms: _195  and  _196
REMARK   81  A    between atoms: _195  and  _198
REMARK   82  A    between atoms: _198  and  _199
REMARK   83  A    between atoms: _202  and  _204
REMARK   84  A    between atoms: _204  and  _205
REMARK   85  A    between atoms: _208  and  _210
REMARK   86  A    between atoms: _210  and  _211
REMARK   87  A    between atoms: _210  and  _213
REMARK   88  A    between atoms: _213  and  _214
REMARK   89  A    between atoms: _216  and  _218
REMARK   90  A    between atoms: _218  and  _219
REMARK   91  A    between atoms: _218  and  _221
REMARK   92  A    between atoms: _221  and  _222
REMARK   93  A    between atoms: _228  and  _230
REMARK   94  A    between atoms: _230  and  _231
REMARK   95  A    between atoms: _230  and  _233
REMARK   96  A    between atoms: _233  and  _234
REMARK   97  A    between atoms: _236  and  _238
REMARK   98  A    between atoms: _238  and  _239
REMARK   99  A    between atoms: _238  and  _241
REMARK  100  A    between atoms: _241  and  _242
REMARK  101  A    between atoms: _242  and  _243
REMARK  102  A    between atoms: _243  and  _244
REMARK  103  A    between atoms: _253  and  _255
REMARK  104  A    between atoms: _255  and  _256
REMARK  105  A    between atoms: _255  and  _258
REMARK  106  A    between atoms: _258  and  _259
REMARK  107  A    between atoms: _261  and  _263
REMARK  108  A    between atoms: _263  and  _264
REMARK  109  A    between atoms: _263  and  _266
REMARK  110  A    between atoms: _266  and  _267
REMARK  111  A    between atoms: _270  and  _272
REMARK  112  A    between atoms: _272  and  _273
REMARK  113  A    between atoms: _272  and  _275
REMARK  114  A    between atoms: _275  and  _276
REMARK  115  A    between atoms: _279  and  _281
REMARK  116  A    between atoms: _281  and  _282
REMARK  117  A    between atoms: _281  and  _284
REMARK  118  A    between atoms: _284  and  _285
REMARK  119  A    between atoms: _288  and  _290
REMARK  120  A    between atoms: _290  and  _291
REMARK  121  A    between atoms: _294  and  _296
REMARK  122  A    between atoms: _296  and  _297
REMARK  123  A    between atoms: _296  and  _299
REMARK  124  A    between atoms: _299  and  _300
REMARK  125  A    between atoms: _303  and  _305
REMARK  126  A    between atoms: _305  and  _306
REMARK  127  A    between atoms: _308  and  _310
REMARK  128  A    between atoms: _310  and  _311
REMARK  129  A    between atoms: _310  and  _313
REMARK  130  A    between atoms: _313  and  _314
REMARK  131  A    between atoms: _317  and  _319
REMARK  132  A    between atoms: _319  and  _320
REMARK  133  A    between atoms: _319  and  _322
REMARK  134  A    between atoms: _325  and  _327
REMARK  135  A    between atoms: _327  and  _328
REMARK  136  A    between atoms: _327  and  _330
REMARK  137  A    between atoms: _330  and  _331
REMARK  138  A    between atoms: _336  and  _338
REMARK  139  A    between atoms: _338  and  _339
REMARK  140  A    between atoms: _338  and  _341
REMARK  141  A    between atoms: _341  and  _342
REMARK  142  A    between atoms: _342  and  _343
REMARK  143  A    between atoms: _343  and  _344
REMARK  144  A    between atoms: _353  and  _355
REMARK  145  A    between atoms: _355  and  _356
REMARK  146  A    between atoms: _359  and  _361
REMARK  147  A    between atoms: _361  and  _362
REMARK  148  A    between atoms: _361  and  _364
REMARK  149  A    between atoms: _364  and  _365
REMARK  150  A    between atoms: _370  and  _372
REMARK  151  A    between atoms: _372  and  _373
REMARK  152  A    between atoms: _376  and  _378
REMARK  153  A    between atoms: _378  and  _379
REMARK  154  A    between atoms: _381  and  _383
REMARK  155  A    between atoms: _383  and  _384
REMARK  156  A    between atoms: _383  and  _386
REMARK  157  A    between atoms: _389  and  _391
REMARK  158  A    between atoms: _391  and  _392
REMARK  159  A    between atoms: _394  and  _396
REMARK  160  A    between atoms: _396  and  _397
REMARK  161  A    between atoms: _400  and  _402
REMARK  162  A    between atoms: _402  and  _403
REMARK  163  A    between atoms: _402  and  _405
REMARK  164  A    between atoms: _405  and  _406
REMARK  165  A    between atoms: _409  and  _411
REMARK  166  A    between atoms: _411  and  _412
REMARK  167  A    between atoms: _411  and  _414
REMARK  168  A    between atoms: _414  and  _415
REMARK  169  A    between atoms: _421  and  _423
REMARK  170  A    between atoms: _423  and  _424
REMARK  171  A    between atoms: _423  and  _426
REMARK  172  A    between atoms: _426  and  _427
REMARK  173  A    between atoms: _430  and  _432
REMARK  174  A    between atoms: _432  and  _433
REMARK  175  A    between atoms: _432  and  _435
REMARK  176  A    between atoms: _435  and  _436
REMARK  177  A    between atoms: _436  and  _437
REMARK  178  A    between atoms: _437  and  _438
REMARK  179  A    between atoms: _447  and  _449
REMARK  180  A    between atoms: _449  and  _450
REMARK  181  A    between atoms: _449  and  _452
REMARK  182  A    between atoms: _455  and  _457
REMARK  183  A    between atoms: _457  and  _458
REMARK  184  A    between atoms: _457  and  _460
REMARK  185  A    between atoms: _460  and  _461
REMARK  186  A    between atoms: _464  and  _466
REMARK  187  A    between atoms: _466  and  _467
REMARK  188  A    between atoms: _466  and  _469
REMARK  189  A    between atoms: _469  and  _470
REMARK  190  A    between atoms: _470  and  _471
REMARK  191  A    between atoms: _471  and  _472
REMARK  192  A    between atoms: _481  and  _483
REMARK  193  A    between atoms: _483  and  _484
REMARK  194  A    between atoms: _483  and  _486
REMARK  195  A    between atoms: _486  and  _487
REMARK  196  A    between atoms: _490  and  _492
REMARK  197  A    between atoms: _492  and  _493
REMARK  198  A    between atoms: _495  and  _497
REMARK  199  A    between atoms: _497  and  _498
REMARK  200  A    between atoms: _497  and  _500
REMARK  201  A    between atoms: _500  and  _501
REMARK  202  A    between atoms: _504  and  _506
REMARK  203  A    between atoms: _506  and  _507
REMARK  204  A    between atoms: _506  and  _509
REMARK  205  A    between atoms: _509  and  _510
REMARK  206  A    between atoms: _510  and  _511
REMARK  207  A    between atoms: _511  and  _512
REMARK  208  A    between atoms: _512  and  _513
REMARK  209  A    between atoms: _517  and  _519
REMARK  210  A    between atoms: _519  and  _520
REMARK  211  A    between atoms: _519  and  _522
REMARK  212  A    between atoms: _524  and  _526
REMARK  213  A    between atoms: _526  and  _527
REMARK  214  A    between atoms: _526  and  _529
REMARK  215  A    between atoms: _529  and  _530
REMARK  216  A    between atoms: _533  and  _535
REMARK  217  A    between atoms: _535  and  _536
REMARK  218  A    between atoms: _535  and  _538
REMARK  219  A    between atoms: _538  and  _539
REMARK  220  A    between atoms: _539  and  _540
REMARK  221  A    between atoms: _543  and  _545
REMARK  222  A    between atoms: _545  and  _546
REMARK  223  A    between atoms: _545  and  _548
REMARK  224  A    between atoms: _548  and  _549
REMARK  225  A    between atoms: _554  and  _556
REMARK  226  A    between atoms: _556  and  _557
REMARK  227  A    between atoms: _556  and  _559
REMARK  228  A    between atoms: _559  and  _560
REMARK  229  A    between atoms: _563  and  _565
REMARK  230  A    between atoms: _565  and  _566
REMARK  231  A    between atoms: _565  and  _568
REMARK  232  A    between atoms: _568  and  _569
REMARK  233  A    between atoms: _575  and  _577
REMARK  234  A    between atoms: _577  and  _578
REMARK  235  A    between atoms: _577  and  _580
REMARK  236  A    between atoms: _580  and  _581
REMARK  237  A    between atoms: _587  and  _589
REMARK  238  A    between atoms: _589  and  _590
REMARK  239  A    between atoms: _589  and  _592
REMARK  240  A    between atoms: _592  and  _593
REMARK  241  A    between atoms: _596  and  _598
REMARK  242  A    between atoms: _598  and  _599
REMARK  243  A    between atoms: _598  and  _601
REMARK  244  A    between atoms: _601  and  _602
REMARK  245  A    between atoms: _605  and  _607
REMARK  246  A    between atoms: _607  and  _608
REMARK  247  A    between atoms: _607  and  _610
REMARK  248  A    between atoms: _610  and  _611
REMARK                            x       y       z     vdW  Elec       q    Type
REMARK                         _______ _______ _______ _____ _____    ______ ____
ROOT
ATOM      1  O   HOH     1      53.085  51.531  23.232  0.00  0.00    +0.000 OA
ENDROOT
TORSDOF 0
REMARK  Name = ../refined-set-2016/4pp3/4pp3_pocket.pdb
REMARK  248 active torsions:
REMARK  status: ('A' for Active; 'I' for Inactive)
REMARK    1  A    between atoms: _1  and  _3
REMARK    2  A    between atoms: _3  and  _4
REMARK    3  A    between atoms: _3  and  _6
REMARK    4  A    between atoms: _6  and  _7
REMARK    5  A    between atoms: _7  and  _8
REMARK    6  A    between atoms: _12  and  _13
REMARK    7  A    between atoms: _18  and  _20
REMARK    8  A    between atoms: _20  and  _21
REMARK    9  A    between atoms: _20  and  _23
REMARK   10  A    between atoms: _26  and  _28
REMARK   11  A    between atoms: _28  and  _29
REMARK   12  A    between atoms: _28  and  _31
REMARK   13  A    between atoms: _31  and  _32
REMARK   14  A    between atoms: _35  and  _37
REMARK   15  A    between atoms: _37  and  _38
REMARK   16  A    between atoms: _37  and  _40
REMARK   17  A    between atoms: _40  and  _41
REMARK   18  A    between atoms: _46  and  _48
REMARK   19  A    between atoms: _48  and  _49
REMARK   20  A    between atoms: _48  and  _51
REMARK   21  A    between atoms: _51  and  _52
REMARK   22  A    between atoms: _55  and  _57
REMARK   23  A    between atoms: _57  and  _58
REMARK   24  A    between atoms: _57  and  _60
REMARK   25  A    between atoms: _62  and  _64
REMARK   26  A    between atoms: _64  and  _65
REMARK   27  A    between atoms: _64  and  _67
REMARK   28  A    between atoms: _67  and  _68
REMARK   29  A    between atoms: _68  and  _69
REMARK   30  A    between atoms: _74  and  _76
REMARK   31  A    between atoms: _76  and  _77
REMARK   32  A    between atoms: _80  and  _82
REMARK   33  A    between atoms: _82  and  _83
REMARK   34  A    between atoms: _86  and  _88
REMARK   35  A    between atoms: _88  and  _89
REMARK   36  A    between atoms: _88  and  _91
REMARK   37  A    between atoms: _91  and  _92
REMARK   38  A    between atoms: _95  and  _97
REMARK   39  A    between atoms: _97  and  _98
REMARK   40  A    between atoms: _97  and  _100
REMARK   41  A    between atoms: _100  and  _101
REMARK   42  A    between atoms: _101  and  _102
REMARK   43  A    between atoms: _102  and  _103
REMARK   44  A    between atoms: _103  and  _104
REMARK   45  A    between atoms: _108  and  _110
REMARK   46  A    between atoms: _110  and  _111
REMARK   47  A    between atoms: _110  and  _113
REMARK   48  A    between atoms: _113  and  _114
REMARK   49  A    between atoms: _114  and  _115
REMARK   50  A    between atoms: _120  and  _122
REMARK   51  A    between atoms: _122  and  _123
REMARK   52  A    between atoms: _122  and  _125
REMARK   53  A    between atoms: _125  and  _126
REMARK   54  A    between atoms: _129  and  _131
REMARK   55  A    between atoms: _131  and  _132
REMARK   56  A    between atoms: _131  and  _134
REMARK   57  A    between atoms: _134  and  _135
REMARK   58  A    between atoms: _138  and  _140
REMARK   59  A    between atoms: _140  and  _141
REMARK   60  A    between atoms: _140  and  _143
REMARK   61  A    between atoms: _143  and  _144
REMARK   62  A    between atoms: _154  and  _156
REMARK   63  A    between atoms: _156  and  _157
REMARK   64  A    between atoms: _156  and  _159
REMARK   65  A    between atoms: _159  and  _160
REMARK   66  A    between atoms: _165  and  _167
REMARK   67  A    between atoms: _167  and  _168
REMARK   68  A    between atoms: _167  and  _170
REMARK   69  A    between atoms: _170  and  _171
REMARK   70  A    between atoms: _171  and  _172
REMARK   71  A    between atoms: _175  and  _177
REMARK   72  A    between atoms: _177  and  _178
REMARK   73  A    between atoms: _177  and  _180
REMARK   74  A    between atoms: _180  and  _181
REMARK   75  A    between atoms: _184  and  _186
REMARK   76  A    between atoms: _186  and  _187
REMARK   77  A    between atoms: _186  and  _189
REMARK   78  A    between atoms: _189  and  _190
REMARK   79  A    between atoms: _193  and  _195
REMARK   80  A    between atoms: _195  and  _196
REMARK   81  A    between atoms: _195  and  _198
REMARK   82  A    between atoms: _198  and  _199
REMARK   83  A    between atoms: _202  and  _204
REMARK   84  A    between atoms: _204  and  _205
REMARK   85  A    between atoms: _208  and  _210
REMARK   86  A    between atoms: _210  and  _211
REMARK   87  A    between atoms: _210  and  _213
REMARK   88  A    between atoms: _213  and  _214
REMARK   89  A    between atoms: _216  and  _218
REMARK   90  A    between atoms: _218  and  _219
REMARK   91  A    between atoms: _218  and  _221
REMARK   92  A    between atoms: _221  and  _222
REMARK   93  A    between atoms: _228  and  _230
REMARK   94  A    between atoms: _230  and  _231
REMARK   95  A    between atoms: _230  and  _233
REMARK   96  A    between atoms: _233  and  _234
REMARK   97  A    between atoms: _236  and  _238
REMARK   98  A    between atoms: _238  and  _239
REMARK   99  A    between atoms: _238  and  _241
REMARK  100  A    between atoms: _241  and  _242
REMARK  101  A    between atoms: _242  and  _243
REMARK  102  A    between atoms: _243  and  _244
REMARK  103  A    between atoms: _253  and  _255
REMARK  104  A    between atoms: _255  and  _256
REMARK  105  A    between atoms: _255  and  _258
REMARK  106  A    between atoms: _258  and  _259
REMARK  107  A    between atoms: _261  and  _263
REMARK  108  A    between atoms: _263  and  _264
REMARK  109  A    between atoms: _263  and  _266
REMARK  110  A    between atoms: _266  and  _267
REMARK  111  A    between atoms: _270  and  _272
REMARK  112  A    between atoms: _272  and  _273
REMARK  113  A    between atoms: _272  and  _275
REMARK  114  A    between atoms: _275  and  _276
REMARK  115  A    between atoms: _279  and  _281
REMARK  116  A    between atoms: _281  and  _282
REMARK  117  A    between atoms: _281  and  _284
REMARK  118  A    between atoms: _284  and  _285
REMARK  119  A    between atoms: _288  and  _290
REMARK  120  A    between atoms: _290  and  _291
REMARK  121  A    between atoms: _294  and  _296
REMARK  122  A    between atoms: _296  and  _297
REMARK  123  A    between atoms: _296  and  _299
REMARK  124  A    between atoms: _299  and  _300
REMARK  125  A    between atoms: _303  and  _305
REMARK  126  A    between atoms: _305  and  _306
REMARK  127  A    between atoms: _308  and  _310
REMARK  128  A    between atoms: _310  and  _311
REMARK  129  A    between atoms: _310  and  _313
REMARK  130  A    between atoms: _313  and  _314
REMARK  131  A    between atoms: _317  and  _319
REMARK  132  A    between atoms: _319  and  _320
REMARK  133  A    between atoms: _319  and  _322
REMARK  134  A    between atoms: _325  and  _327
REMARK  135  A    between atoms: _327  and  _328
REMARK  136  A    between atoms: _327  and  _330
REMARK  137  A    between atoms: _330  and  _331
REMARK  138  A    between atoms: _336  and  _338
REMARK  139  A    between atoms: _338  and  _339
REMARK  140  A    between atoms: _338  and  _341
REMARK  141  A    between atoms: _341  and  _342
REMARK  142  A    between atoms: _342  and  _343
REMARK  143  A    between atoms: _343  and  _344
REMARK  144  A    between atoms: _353  and  _355
REMARK  145  A    between atoms: _355  and  _356
REMARK  146  A    between atoms: _359  and  _361
REMARK  147  A    between atoms: _361  and  _362
REMARK  148  A    between atoms: _361  and  _364
REMARK  149  A    between atoms: _364  and  _365
REMARK  150  A    between atoms: _370  and  _372
REMARK  151  A    between atoms: _372  and  _373
REMARK  152  A    between atoms: _376  and  _378
REMARK  153  A    between atoms: _378  and  _379
REMARK  154  A    between atoms: _381  and  _383
REMARK  155  A    between atoms: _383  and  _384
REMARK  156  A    between atoms: _383  and  _386
REMARK  157  A    between atoms: _389  and  _391
REMARK  158  A    between atoms: _391  and  _392
REMARK  159  A    between atoms: _394  and  _396
REMARK  160  A    between atoms: _396  and  _397
REMARK  161  A    between atoms: _400  and  _402
REMARK  162  A    between atoms: _402  and  _403
REMARK  163  A    between atoms: _402  and  _405
REMARK  164  A    between atoms: _405  and  _406
REMARK  165  A    between atoms: _409  and  _411
REMARK  166  A    between atoms: _411  and  _412
REMARK  167  A    between atoms: _411  and  _414
REMARK  168  A    between atoms: _414  and  _415
REMARK  169  A    between atoms: _421  and  _423
REMARK  170  A    between atoms: _423  and  _424
REMARK  171  A    between atoms: _423  and  _426
REMARK  172  A    between atoms: _426  and  _427
REMARK  173  A    between atoms: _430  and  _432
REMARK  174  A    between atoms: _432  and  _433
REMARK  175  A    between atoms: _432  and  _435
REMARK  176  A    between atoms: _435  and  _436
REMARK  177  A    between atoms: _436  and  _437
REMARK  178  A    between atoms: _437  and  _438
REMARK  179  A    between atoms: _447  and  _449
REMARK  180  A    between atoms: _449  and  _450
REMARK  181  A    between atoms: _449  and  _452
REMARK  182  A    between atoms: _455  and  _457
REMARK  183  A    between atoms: _457  and  _458
REMARK  184  A    between atoms: _457  and  _460
REMARK  185  A    between atoms: _460  and  _461
REMARK  186  A    between atoms: _464  and  _466
REMARK  187  A    between atoms: _466  and  _467
REMARK  188  A    between atoms: _466  and  _469
REMARK  189  A    between atoms: _469  and  _470
REMARK  190  A    between atoms: _470  and  _471
REMARK  191  A    between atoms: _471  and  _472
REMARK  192  A    between atoms: _481  and  _483
REMARK  193  A    between atoms: _483  and  _484
REMARK  194  A    between atoms: _483  and  _486
REMARK  195  A    between atoms: _486  and  _487
REMARK  196  A    between atoms: _490  and  _492
REMARK  197  A    between atoms: _492  and  _493
REMARK  198  A    between atoms: _495  and  _497
REMARK  199  A    between atoms: _497  and  _498
REMARK  200  A    between atoms: _497  and  _500
REMARK  201  A    between atoms: _500  and  _501
REMARK  202  A    between atoms: _504  and  _506
REMARK  203  A    between atoms: _506  and  _507
REMARK  204  A    between atoms: _506  and  _509
REMARK  205  A    between atoms: _509  and  _510
REMARK  206  A    between atoms: _510  and  _511
REMARK  207  A    between atoms: _511  and  _512
REMARK  208  A    between atoms: _512  and  _513
REMARK  209  A    between atoms: _517  and  _519
REMARK  210  A    between atoms: _519  and  _520
REMARK  211  A    between atoms: _519  and  _522
REMARK  212  A    between atoms: _524  and  _526
REMARK  213  A    between atoms: _526  and  _527
REMARK  214  A    between atoms: _526  and  _529
REMARK  215  A    between atoms: _529  and  _530
REMARK  216  A    between atoms: _533  and  _535
REMARK  217  A    between atoms: _535  and  _536
REMARK  218  A    between atoms: _535  and  _538
REMARK  219  A    between atoms: _538  and  _539
REMARK  220  A    between atoms: _539  and  _540
REMARK  221  A    between atoms: _543  and  _545
REMARK  222  A    between atoms: _545  and  _546
REMARK  223  A    between atoms: _545  and  _548
REMARK  224  A    between atoms: _548  and  _549
REMARK  225  A    between atoms: _554  and  _556
REMARK  226  A    between atoms: _556  and  _557
REMARK  227  A    between atoms: _556  and  _559
REMARK  228  A    between atoms: _559  and  _560
REMARK  229  A    between atoms: _563  and  _565
REMARK  230  A    between atoms: _565  and  _566
REMARK  231  A    between atoms: _565  and  _568
REMARK  232  A    between atoms: _568  and  _569
REMARK  233  A    between atoms: _575  and  _577
REMARK  234  A    between atoms: _577  and  _578
REMARK  235  A    between atoms: _577  and  _580
REMARK  236  A    between atoms: _580  and  _581
REMARK  237  A    between atoms: _587  and  _589
REMARK  238  A    between atoms: _589  and  _590
REMARK  239  A    between atoms: _589  and  _592
REMARK  240  A    between atoms: _592  and  _593
REMARK  241  A    between atoms: _596  and  _598
REMARK  242  A    between atoms: _598  and  _599
REMARK  243  A    between atoms: _598  and  _601
REMARK  244  A    between atoms: _601  and  _602
REMARK  245  A    between atoms: _605  and  _607
REMARK  246  A    between atoms: _607  and  _608
REMARK  247  A    between atoms: _607  and  _610
REMARK  248  A    between atoms: _610  and  _611
REMARK                            x       y       z     vdW  Elec       q    Type
REMARK                         _______ _______ _______ _____ _____    ______ ____
ROOT
ATOM      1  O   HOH     1      56.527  49.710  27.686  0.00  0.00    +0.000 OA
ENDROOT
TORSDOF 0
REMARK  Name = ../refined-set-2016/4pp3/4pp3_pocket.pdb
REMARK  248 active torsions:
REMARK  status: ('A' for Active; 'I' for Inactive)
REMARK    1  A    between atoms: _1  and  _3
REMARK    2  A    between atoms: _3  and  _4
REMARK    3  A    between atoms: _3  and  _6
REMARK    4  A    between atoms: _6  and  _7
REMARK    5  A    between atoms: _7  and  _8
REMARK    6  A    between atoms: _12  and  _13
REMARK    7  A    between atoms: _18  and  _20
REMARK    8  A    between atoms: _20  and  _21
REMARK    9  A    between atoms: _20  and  _23
REMARK   10  A    between atoms: _26  and  _28
REMARK   11  A    between atoms: _28  and  _29
REMARK   12  A    between atoms: _28  and  _31
REMARK   13  A    between atoms: _31  and  _32
REMARK   14  A    between atoms: _35  and  _37
REMARK   15  A    between atoms: _37  and  _38
REMARK   16  A    between atoms: _37  and  _40
REMARK   17  A    between atoms: _40  and  _41
REMARK   18  A    between atoms: _46  and  _48
REMARK   19  A    between atoms: _48  and  _49
REMARK   20  A    between atoms: _48  and  _51
REMARK   21  A    between atoms: _51  and  _52
REMARK   22  A    between atoms: _55  and  _57
REMARK   23  A    between atoms: _57  and  _58
REMARK   24  A    between atoms: _57  and  _60
REMARK   25  A    between atoms: _62  and  _64
REMARK   26  A    between atoms: _64  and  _65
REMARK   27  A    between atoms: _64  and  _67
REMARK   28  A    between atoms: _67  and  _68
REMARK   29  A    between atoms: _68  and  _69
REMARK   30  A    between atoms: _74  and  _76
REMARK   31  A    between atoms: _76  and  _77
REMARK   32  A    between atoms: _80  and  _82
REMARK   33  A    between atoms: _82  and  _83
REMARK   34  A    between atoms: _86  and  _88
REMARK   35  A    between atoms: _88  and  _89
REMARK   36  A    between atoms: _88  and  _91
REMARK   37  A    between atoms: _91  and  _92
REMARK   38  A    between atoms: _95  and  _97
REMARK   39  A    between atoms: _97  and  _98
REMARK   40  A    between atoms: _97  and  _100
REMARK   41  A    between atoms: _100  and  _101
REMARK   42  A    between atoms: _101  and  _102
REMARK   43  A    between atoms: _102  and  _103
REMARK   44  A    between atoms: _103  and  _104
REMARK   45  A    between atoms: _108  and  _110
REMARK   46  A    between atoms: _110  and  _111
REMARK   47  A    between atoms: _110  and  _113
REMARK   48  A    between atoms: _113  and  _114
REMARK   49  A    between atoms: _114  and  _115
REMARK   50  A    between atoms: _120  and  _122
REMARK   51  A    between atoms: _122  and  _123
REMARK   52  A    between atoms: _122  and  _125
REMARK   53  A    between atoms: _125  and  _126
REMARK   54  A    between atoms: _129  and  _131
REMARK   55  A    between atoms: _131  and  _132
REMARK   56  A    between atoms: _131  and  _134
REMARK   57  A    between atoms: _134  and  _135
REMARK   58  A    between atoms: _138  and  _140
REMARK   59  A    between atoms: _140  and  _141
REMARK   60  A    between atoms: _140  and  _143
REMARK   61  A    between atoms: _143  and  _144
REMARK   62  A    between atoms: _154  and  _156
REMARK   63  A    between atoms: _156  and  _157
REMARK   64  A    between atoms: _156  and  _159
REMARK   65  A    between atoms: _159  and  _160
REMARK   66  A    between atoms: _165  and  _167
REMARK   67  A    between atoms: _167  and  _168
REMARK   68  A    between atoms: _167  and  _170
REMARK   69  A    between atoms: _170  and  _171
REMARK   70  A    between atoms: _171  and  _172
REMARK   71  A    between atoms: _175  and  _177
REMARK   72  A    between atoms: _177  and  _178
REMARK   73  A    between atoms: _177  and  _180
REMARK   74  A    between atoms: _180  and  _181
REMARK   75  A    between atoms: _184  and  _186
REMARK   76  A    between atoms: _186  and  _187
REMARK   77  A    between atoms: _186  and  _189
REMARK   78  A    between atoms: _189  and  _190
REMARK   79  A    between atoms: _193  and  _195
REMARK   80  A    between atoms: _195  and  _196
REMARK   81  A    between atoms: _195  and  _198
REMARK   82  A    between atoms: _198  and  _199
REMARK   83  A    between atoms: _202  and  _204
REMARK   84  A    between atoms: _204  and  _205
REMARK   85  A    between atoms: _208  and  _210
REMARK   86  A    between atoms: _210  and  _211
REMARK   87  A    between atoms: _210  and  _213
REMARK   88  A    between atoms: _213  and  _214
REMARK   89  A    between atoms: _216  and  _218
REMARK   90  A    between atoms: _218  and  _219
REMARK   91  A    between atoms: _218  and  _221
REMARK   92  A    between atoms: _221  and  _222
REMARK   93  A    between atoms: _228  and  _230
REMARK   94  A    between atoms: _230  and  _231
REMARK   95  A    between atoms: _230  and  _233
REMARK   96  A    between atoms: _233  and  _234
REMARK   97  A    between atoms: _236  and  _238
REMARK   98  A    between atoms: _238  and  _239
REMARK   99  A    between atoms: _238  and  _241
REMARK  100  A    between atoms: _241  and  _242
REMARK  101  A    between atoms: _242  and  _243
REMARK  102  A    between atoms: _243  and  _244
REMARK  103  A    between atoms: _253  and  _255
REMARK  104  A    between atoms: _255  and  _256
REMARK  105  A    between atoms: _255  and  _258
REMARK  106  A    between atoms: _258  and  _259
REMARK  107  A    between atoms: _261  and  _263
REMARK  108  A    between atoms: _263  and  _264
REMARK  109  A    between atoms: _263  and  _266
REMARK  110  A    between atoms: _266  and  _267
REMARK  111  A    between atoms: _270  and  _272
REMARK  112  A    between atoms: _272  and  _273
REMARK  113  A    between atoms: _272  and  _275
REMARK  114  A    between atoms: _275  and  _276
REMARK  115  A    between atoms: _279  and  _281
REMARK  116  A    between atoms: _281  and  _282
REMARK  117  A    between atoms: _281  and  _284
REMARK  118  A    between atoms: _284  and  _285
REMARK  119  A    between atoms: _288  and  _290
REMARK  120  A    between atoms: _290  and  _291
REMARK  121  A    between atoms: _294  and  _296
REMARK  122  A    between atoms: _296  and  _297
REMARK  123  A    between atoms: _296  and  _299
REMARK  124  A    between atoms: _299  and  _300
REMARK  125  A    between atoms: _303  and  _305
REMARK  126  A    between atoms: _305  and  _306
REMARK  127  A    between atoms: _308  and  _310
REMARK  128  A    between atoms: _310  and  _311
REMARK  129  A    between atoms: _310  and  _313
REMARK  130  A    between atoms: _313  and  _314
REMARK  131  A    between atoms: _317  and  _319
REMARK  132  A    between atoms: _319  and  _320
REMARK  133  A    between atoms: _319  and  _322
REMARK  134  A    between atoms: _325  and  _327
REMARK  135  A    between atoms: _327  and  _328
REMARK  136  A    between atoms: _327  and  _330
REMARK  137  A    between atoms: _330  and  _331
REMARK  138  A    between atoms: _336  and  _338
REMARK  139  A    between atoms: _338  and  _339
REMARK  140  A    between atoms: _338  and  _341
REMARK  141  A    between atoms: _341  and  _342
REMARK  142  A    between atoms: _342  and  _343
REMARK  143  A    between atoms: _343  and  _344
REMARK  144  A    between atoms: _353  and  _355
REMARK  145  A    between atoms: _355  and  _356
REMARK  146  A    between atoms: _359  and  _361
REMARK  147  A    between atoms: _361  and  _362
REMARK  148  A    between atoms: _361  and  _364
REMARK  149  A    between atoms: _364  and  _365
REMARK  150  A    between atoms: _370  and  _372
REMARK  151  A    between atoms: _372  and  _373
REMARK  152  A    between atoms: _376  and  _378
REMARK  153  A    between atoms: _378  and  _379
REMARK  154  A    between atoms: _381  and  _383
REMARK  155  A    between atoms: _383  and  _384
REMARK  156  A    between atoms: _383  and  _386
REMARK  157  A    between atoms: _389  and  _391
REMARK  158  A    between atoms: _391  and  _392
REMARK  159  A    between atoms: _394  and  _396
REMARK  160  A    between atoms: _396  and  _397
REMARK  161  A    between atoms: _400  and  _402
REMARK  162  A    between atoms: _402  and  _403
REMARK  163  A    between atoms: _402  and  _405
REMARK  164  A    between atoms: _405  and  _406
REMARK  165  A    between atoms: _409  and  _411
REMARK  166  A    between atoms: _411  and  _412
REMARK  167  A    between atoms: _411  and  _414
REMARK  168  A    between atoms: _414  and  _415
REMARK  169  A    between atoms: _421  and  _423
REMARK  170  A    between atoms: _423  and  _424
REMARK  171  A    between atoms: _423  and  _426
REMARK  172  A    between atoms: _426  and  _427
REMARK  173  A    between atoms: _430  and  _432
REMARK  174  A    between atoms: _432  and  _433
REMARK  175  A    between atoms: _432  and  _435
REMARK  176  A    between atoms: _435  and  _436
REMARK  177  A    between atoms: _436  and  _437
REMARK  178  A    between atoms: _437  and  _438
REMARK  179  A    between atoms: _447  and  _449
REMARK  180  A    between atoms: _449  and  _450
REMARK  181  A    between atoms: _449  and  _452
REMARK  182  A    between atoms: _455  and  _457
REMARK  183  A    between atoms: _457  and  _458
REMARK  184  A    between atoms: _457  and  _460
REMARK  185  A    between atoms: _460  and  _461
REMARK  186  A    between atoms: _464  and  _466
REMARK  187  A    between atoms: _466  and  _467
REMARK  188  A    between atoms: _466  and  _469
REMARK  189  A    between atoms: _469  and  _470
REMARK  190  A    between atoms: _470  and  _471
REMARK  191  A    between atoms: _471  and  _472
REMARK  192  A    between atoms: _481  and  _483
REMARK  193  A    between atoms: _483  and  _484
REMARK  194  A    between atoms: _483  and  _486
REMARK  195  A    between atoms: _486  and  _487
REMARK  196  A    between atoms: _490  and  _492
REMARK  197  A    between atoms: _492  and  _493
REMARK  198  A    between atoms: _495  and  _497
REMARK  199  A    between atoms: _497  and  _498
REMARK  200  A    between atoms: _497  and  _500
REMARK  201  A    between atoms: _500  and  _501
REMARK  202  A    between atoms: _504  and  _506
REMARK  203  A    between atoms: _506  and  _507
REMARK  204  A    between atoms: _506  and  _509
REMARK  205  A    between atoms: _509  and  _510
REMARK  206  A    between atoms: _510  and  _511
REMARK  207  A    between atoms: _511  and  _512
REMARK  208  A    between atoms: _512  and  _513
REMARK  209  A    between atoms: _517  and  _519
REMARK  210  A    between atoms: _519  and  _520
REMARK  211  A    between atoms: _519  and  _522
REMARK  212  A    between atoms: _524  and  _526
REMARK  213  A    between atoms: _526  and  _527
REMARK  214  A    between atoms: _526  and  _529
REMARK  215  A    between atoms: _529  and  _530
REMARK  216  A    between atoms: _533  and  _535
REMARK  217  A    between atoms: _535  and  _536
REMARK  218  A    between atoms: _535  and  _538
REMARK  219  A    between atoms: _538  and  _539
REMARK  220  A    between atoms: _539  and  _540
REMARK  221  A    between atoms: _543  and  _545
REMARK  222  A    between atoms: _545  and  _546
REMARK  223  A    between atoms: _545  and  _548
REMARK  224  A    between atoms: _548  and  _549
REMARK  225  A    between atoms: _554  and  _556
REMARK  226  A    between atoms: _556  and  _557
REMARK  227  A    between atoms: _556  and  _559
REMARK  228  A    between atoms: _559  and  _560
REMARK  229  A    between atoms: _563  and  _565
REMARK  230  A    between atoms: _565  and  _566
REMARK  231  A    between atoms: _565  and  _568
REMARK  232  A    between atoms: _568  and  _569
REMARK  233  A    between atoms: _575  and  _577
REMARK  234  A    between atoms: _577  and  _578
REMARK  235  A    between atoms: _577  and  _580
REMARK  236  A    between atoms: _580  and  _581
REMARK  237  A    between atoms: _587  and  _589
REMARK  238  A    between atoms: _589  and  _590
REMARK  239  A    between atoms: _589  and  _592
REMARK  240  A    between atoms: _592  and  _593
REMARK  241  A    between atoms: _596  and  _598
REMARK  242  A    between atoms: _598  and  _599
REMARK  243  A    between atoms: _598  and  _601
REMARK  244  A    between atoms: _601  and  _602
REMARK  245  A    between atoms: _605  and  _607
REMARK  246  A    between atoms: _607  and  _608
REMARK  247  A    between atoms: _607  and  _610
REMARK  248  A    between atoms: _610  and  _611
REMARK                            x       y       z     vdW  Elec       q    Type
REMARK                         _______ _______ _______ _____ _____    ______ ____
ROOT
ATOM      1  O   HOH     1      57.977  39.311  31.824  0.00  0.00    +0.000 OA
ENDROOT
TORSDOF 0
REMARK  Name = ../refined-set-2016/4pp3/4pp3_pocket.pdb
REMARK  248 active torsions:
REMARK  status: ('A' for Active; 'I' for Inactive)
REMARK    1  A    between atoms: _1  and  _3
REMARK    2  A    between atoms: _3  and  _4
REMARK    3  A    between atoms: _3  and  _6
REMARK    4  A    between atoms: _6  and  _7
REMARK    5  A    between atoms: _7  and  _8
REMARK    6  A    between atoms: _12  and  _13
REMARK    7  A    between atoms: _18  and  _20
REMARK    8  A    between atoms: _20  and  _21
REMARK    9  A    between atoms: _20  and  _23
REMARK   10  A    between atoms: _26  and  _28
REMARK   11  A    between atoms: _28  and  _29
REMARK   12  A    between atoms: _28  and  _31
REMARK   13  A    between atoms: _31  and  _32
REMARK   14  A    between atoms: _35  and  _37
REMARK   15  A    between atoms: _37  and  _38
REMARK   16  A    between atoms: _37  and  _40
REMARK   17  A    between atoms: _40  and  _41
REMARK   18  A    between atoms: _46  and  _48
REMARK   19  A    between atoms: _48  and  _49
REMARK   20  A    between atoms: _48  and  _51
REMARK   21  A    between atoms: _51  and  _52
REMARK   22  A    between atoms: _55  and  _57
REMARK   23  A    between atoms: _57  and  _58
REMARK   24  A    between atoms: _57  and  _60
REMARK   25  A    between atoms: _62  and  _64
REMARK   26  A    between atoms: _64  and  _65
REMARK   27  A    between atoms: _64  and  _67
REMARK   28  A    between atoms: _67  and  _68
REMARK   29  A    between atoms: _68  and  _69
REMARK   30  A    between atoms: _74  and  _76
REMARK   31  A    between atoms: _76  and  _77
REMARK   32  A    between atoms: _80  and  _82
REMARK   33  A    between atoms: _82  and  _83
REMARK   34  A    between atoms: _86  and  _88
REMARK   35  A    between atoms: _88  and  _89
REMARK   36  A    between atoms: _88  and  _91
REMARK   37  A    between atoms: _91  and  _92
REMARK   38  A    between atoms: _95  and  _97
REMARK   39  A    between atoms: _97  and  _98
REMARK   40  A    between atoms: _97  and  _100
REMARK   41  A    between atoms: _100  and  _101
REMARK   42  A    between atoms: _101  and  _102
REMARK   43  A    between atoms: _102  and  _103
REMARK   44  A    between atoms: _103  and  _104
REMARK   45  A    between atoms: _108  and  _110
REMARK   46  A    between atoms: _110  and  _111
REMARK   47  A    between atoms: _110  and  _113
REMARK   48  A    between atoms: _113  and  _114
REMARK   49  A    between atoms: _114  and  _115
REMARK   50  A    between atoms: _120  and  _122
REMARK   51  A    between atoms: _122  and  _123
REMARK   52  A    between atoms: _122  and  _125
REMARK   53  A    between atoms: _125  and  _126
REMARK   54  A    between atoms: _129  and  _131
REMARK   55  A    between atoms: _131  and  _132
REMARK   56  A    between atoms: _131  and  _134
REMARK   57  A    between atoms: _134  and  _135
REMARK   58  A    between atoms: _138  and  _140
REMARK   59  A    between atoms: _140  and  _141
REMARK   60  A    between atoms: _140  and  _143
REMARK   61  A    between atoms: _143  and  _144
REMARK   62  A    between atoms: _154  and  _156
REMARK   63  A    between atoms: _156  and  _157
REMARK   64  A    between atoms: _156  and  _159
REMARK   65  A    between atoms: _159  and  _160
REMARK   66  A    between atoms: _165  and  _167
REMARK   67  A    between atoms: _167  and  _168
REMARK   68  A    between atoms: _167  and  _170
REMARK   69  A    between atoms: _170  and  _171
REMARK   70  A    between atoms: _171  and  _172
REMARK   71  A    between atoms: _175  and  _177
REMARK   72  A    between atoms: _177  and  _178
REMARK   73  A    between atoms: _177  and  _180
REMARK   74  A    between atoms: _180  and  _181
REMARK   75  A    between atoms: _184  and  _186
REMARK   76  A    between atoms: _186  and  _187
REMARK   77  A    between atoms: _186  and  _189
REMARK   78  A    between atoms: _189  and  _190
REMARK   79  A    between atoms: _193  and  _195
REMARK   80  A    between atoms: _195  and  _196
REMARK   81  A    between atoms: _195  and  _198
REMARK   82  A    between atoms: _198  and  _199
REMARK   83  A    between atoms: _202  and  _204
REMARK   84  A    between atoms: _204  and  _205
REMARK   85  A    between atoms: _208  and  _210
REMARK   86  A    between atoms: _210  and  _211
REMARK   87  A    between atoms: _210  and  _213
REMARK   88  A    between atoms: _213  and  _214
REMARK   89  A    between atoms: _216  and  _218
REMARK   90  A    between atoms: _218  and  _219
REMARK   91  A    between atoms: _218  and  _221
REMARK   92  A    between atoms: _221  and  _222
REMARK   93  A    between atoms: _228  and  _230
REMARK   94  A    between atoms: _230  and  _231
REMARK   95  A    between atoms: _230  and  _233
REMARK   96  A    between atoms: _233  and  _234
REMARK   97  A    between atoms: _236  and  _238
REMARK   98  A    between atoms: _238  and  _239
REMARK   99  A    between atoms: _238  and  _241
REMARK  100  A    between atoms: _241  and  _242
REMARK  101  A    between atoms: _242  and  _243
REMARK  102  A    between atoms: _243  and  _244
REMARK  103  A    between atoms: _253  and  _255
REMARK  104  A    between atoms: _255  and  _256
REMARK  105  A    between atoms: _255  and  _258
REMARK  106  A    between atoms: _258  and  _259
REMARK  107  A    between atoms: _261  and  _263
REMARK  108  A    between atoms: _263  and  _264
REMARK  109  A    between atoms: _263  and  _266
REMARK  110  A    between atoms: _266  and  _267
REMARK  111  A    between atoms: _270  and  _272
REMARK  112  A    between atoms: _272  and  _273
REMARK  113  A    between atoms: _272  and  _275
REMARK  114  A    between atoms: _275  and  _276
REMARK  115  A    between atoms: _279  and  _281
REMARK  116  A    between atoms: _281  and  _282
REMARK  117  A    between atoms: _281  and  _284
REMARK  118  A    between atoms: _284  and  _285
REMARK  119  A    between atoms: _288  and  _290
REMARK  120  A    between atoms: _290  and  _291
REMARK  121  A    between atoms: _294  and  _296
REMARK  122  A    between atoms: _296  and  _297
REMARK  123  A    between atoms: _296  and  _299
REMARK  124  A    between atoms: _299  and  _300
REMARK  125  A    between atoms: _303  and  _305
REMARK  126  A    between atoms: _305  and  _306
REMARK  127  A    between atoms: _308  and  _310
REMARK  128  A    between atoms: _310  and  _311
REMARK  129  A    between atoms: _310  and  _313
REMARK  130  A    between atoms: _313  and  _314
REMARK  131  A    between atoms: _317  and  _319
REMARK  132  A    between atoms: _319  and  _320
REMARK  133  A    between atoms: _319  and  _322
REMARK  134  A    between atoms: _325  and  _327
REMARK  135  A    between atoms: _327  and  _328
REMARK  136  A    between atoms: _327  and  _330
REMARK  137  A    between atoms: _330  and  _331
REMARK  138  A    between atoms: _336  and  _338
REMARK  139  A    between atoms: _338  and  _339
REMARK  140  A    between atoms: _338  and  _341
REMARK  141  A    between atoms: _341  and  _342
REMARK  142  A    between atoms: _342  and  _343
REMARK  143  A    between atoms: _343  and  _344
REMARK  144  A    between atoms: _353  and  _355
REMARK  145  A    between atoms: _355  and  _356
REMARK  146  A    between atoms: _359  and  _361
REMARK  147  A    between atoms: _361  and  _362
REMARK  148  A    between atoms: _361  and  _364
REMARK  149  A    between atoms: _364  and  _365
REMARK  150  A    between atoms: _370  and  _372
REMARK  151  A    between atoms: _372  and  _373
REMARK  152  A    between atoms: _376  and  _378
REMARK  153  A    between atoms: _378  and  _379
REMARK  154  A    between atoms: _381  and  _383
REMARK  155  A    between atoms: _383  and  _384
REMARK  156  A    between atoms: _383  and  _386
REMARK  157  A    between atoms: _389  and  _391
REMARK  158  A    between atoms: _391  and  _392
REMARK  159  A    between atoms: _394  and  _396
REMARK  160  A    between atoms: _396  and  _397
REMARK  161  A    between atoms: _400  and  _402
REMARK  162  A    between atoms: _402  and  _403
REMARK  163  A    between atoms: _402  and  _405
REMARK  164  A    between atoms: _405  and  _406
REMARK  165  A    between atoms: _409  and  _411
REMARK  166  A    between atoms: _411  and  _412
REMARK  167  A    between atoms: _411  and  _414
REMARK  168  A    between atoms: _414  and  _415
REMARK  169  A    between atoms: _421  and  _423
REMARK  170  A    between atoms: _423  and  _424
REMARK  171  A    between atoms: _423  and  _426
REMARK  172  A    between atoms: _426  and  _427
REMARK  173  A    between atoms: _430  and  _432
REMARK  174  A    between atoms: _432  and  _433
REMARK  175  A    between atoms: _432  and  _435
REMARK  176  A    between atoms: _435  and  _436
REMARK  177  A    between atoms: _436  and  _437
REMARK  178  A    between atoms: _437  and  _438
REMARK  179  A    between atoms: _447  and  _449
REMARK  180  A    between atoms: _449  and  _450
REMARK  181  A    between atoms: _449  and  _452
REMARK  182  A    between atoms: _455  and  _457
REMARK  183  A    between atoms: _457  and  _458
REMARK  184  A    between atoms: _457  and  _460
REMARK  185  A    between atoms: _460  and  _461
REMARK  186  A    between atoms: _464  and  _466
REMARK  187  A    between atoms: _466  and  _467
REMARK  188  A    between atoms: _466  and  _469
REMARK  189  A    between atoms: _469  and  _470
REMARK  190  A    between atoms: _470  and  _471
REMARK  191  A    between atoms: _471  and  _472
REMARK  192  A    between atoms: _481  and  _483
REMARK  193  A    between atoms: _483  and  _484
REMARK  194  A    between atoms: _483  and  _486
REMARK  195  A    between atoms: _486  and  _487
REMARK  196  A    between atoms: _490  and  _492
REMARK  197  A    between atoms: _492  and  _493
REMARK  198  A    between atoms: _495  and  _497
REMARK  199  A    between atoms: _497  and  _498
REMARK  200  A    between atoms: _497  and  _500
REMARK  201  A    between atoms: _500  and  _501
REMARK  202  A    between atoms: _504  and  _506
REMARK  203  A    between atoms: _506  and  _507
REMARK  204  A    between atoms: _506  and  _509
REMARK  205  A    between atoms: _509  and  _510
REMARK  206  A    between atoms: _510  and  _511
REMARK  207  A    between atoms: _511  and  _512
REMARK  208  A    between atoms: _512  and  _513
REMARK  209  A    between atoms: _517  and  _519
REMARK  210  A    between atoms: _519  and  _520
REMARK  211  A    between atoms: _519  and  _522
REMARK  212  A    between atoms: _524  and  _526
REMARK  213  A    between atoms: _526  and  _527
REMARK  214  A    between atoms: _526  and  _529
REMARK  215  A    between atoms: _529  and  _530
REMARK  216  A    between atoms: _533  and  _535
REMARK  217  A    between atoms: _535  and  _536
REMARK  218  A    between atoms: _535  and  _538
REMARK  219  A    between atoms: _538  and  _539
REMARK  220  A    between atoms: _539  and  _540
REMARK  221  A    between atoms: _543  and  _545
REMARK  222  A    between atoms: _545  and  _546
REMARK  223  A    between atoms: _545  and  _548
REMARK  224  A    between atoms: _548  and  _549
REMARK  225  A    between atoms: _554  and  _556
REMARK  226  A    between atoms: _556  and  _557
REMARK  227  A    between atoms: _556  and  _559
REMARK  228  A    between atoms: _559  and  _560
REMARK  229  A    between atoms: _563  and  _565
REMARK  230  A    between atoms: _565  and  _566
REMARK  231  A    between atoms: _565  and  _568
REMARK  232  A    between atoms: _568  and  _569
REMARK  233  A    between atoms: _575  and  _577
REMARK  234  A    between atoms: _577  and  _578
REMARK  235  A    between atoms: _577  and  _580
REMARK  236  A    between atoms: _580  and  _581
REMARK  237  A    between atoms: _587  and  _589
REMARK  238  A    between atoms: _589  and  _590
REMARK  239  A    between atoms: _589  and  _592
REMARK  240  A    between atoms: _592  and  _593
REMARK  241  A    between atoms: _596  and  _598
REMARK  242  A    between atoms: _598  and  _599
REMARK  243  A    between atoms: _598  and  _601
REMARK  244  A    between atoms: _601  and  _602
REMARK  245  A    between atoms: _605  and  _607
REMARK  246  A    between atoms: _607  and  _608
REMARK  247  A    between atoms: _607  and  _610
REMARK  248  A    between atoms: _610  and  _611
REMARK                            x       y       z     vdW  Elec       q    Type
REMARK                         _______ _______ _______ _____ _____    ______ ____
ROOT
ATOM      1  O   HOH     1      51.056  44.442  24.675  0.00  0.00    +0.000 OA
ENDROOT
TORSDOF 0
REMARK  Name = ../refined-set-2016/4pp3/4pp3_pocket.pdb
REMARK  248 active torsions:
REMARK  status: ('A' for Active; 'I' for Inactive)
REMARK    1  A    between atoms: _1  and  _3
REMARK    2  A    between atoms: _3  and  _4
REMARK    3  A    between atoms: _3  and  _6
REMARK    4  A    between atoms: _6  and  _7
REMARK    5  A    between atoms: _7  and  _8
REMARK    6  A    between atoms: _12  and  _13
REMARK    7  A    between atoms: _18  and  _20
REMARK    8  A    between atoms: _20  and  _21
REMARK    9  A    between atoms: _20  and  _23
REMARK   10  A    between atoms: _26  and  _28
REMARK   11  A    between atoms: _28  and  _29
REMARK   12  A    between atoms: _28  and  _31
REMARK   13  A    between atoms: _31  and  _32
REMARK   14  A    between atoms: _35  and  _37
REMARK   15  A    between atoms: _37  and  _38
REMARK   16  A    between atoms: _37  and  _40
REMARK   17  A    between atoms: _40  and  _41
REMARK   18  A    between atoms: _46  and  _48
REMARK   19  A    between atoms: _48  and  _49
REMARK   20  A    between atoms: _48  and  _51
REMARK   21  A    between atoms: _51  and  _52
REMARK   22  A    between atoms: _55  and  _57
REMARK   23  A    between atoms: _57  and  _58
REMARK   24  A    between atoms: _57  and  _60
REMARK   25  A    between atoms: _62  and  _64
REMARK   26  A    between atoms: _64  and  _65
REMARK   27  A    between atoms: _64  and  _67
REMARK   28  A    between atoms: _67  and  _68
REMARK   29  A    between atoms: _68  and  _69
REMARK   30  A    between atoms: _74  and  _76
REMARK   31  A    between atoms: _76  and  _77
REMARK   32  A    between atoms: _80  and  _82
REMARK   33  A    between atoms: _82  and  _83
REMARK   34  A    between atoms: _86  and  _88
REMARK   35  A    between atoms: _88  and  _89
REMARK   36  A    between atoms: _88  and  _91
REMARK   37  A    between atoms: _91  and  _92
REMARK   38  A    between atoms: _95  and  _97
REMARK   39  A    between atoms: _97  and  _98
REMARK   40  A    between atoms: _97  and  _100
REMARK   41  A    between atoms: _100  and  _101
REMARK   42  A    between atoms: _101  and  _102
REMARK   43  A    between atoms: _102  and  _103
REMARK   44  A    between atoms: _103  and  _104
REMARK   45  A    between atoms: _108  and  _110
REMARK   46  A    between atoms: _110  and  _111
REMARK   47  A    between atoms: _110  and  _113
REMARK   48  A    between atoms: _113  and  _114
REMARK   49  A    between atoms: _114  and  _115
REMARK   50  A    between atoms: _120  and  _122
REMARK   51  A    between atoms: _122  and  _123
REMARK   52  A    between atoms: _122  and  _125
REMARK   53  A    between atoms: _125  and  _126
REMARK   54  A    between atoms: _129  and  _131
REMARK   55  A    between atoms: _131  and  _132
REMARK   56  A    between atoms: _131  and  _134
REMARK   57  A    between atoms: _134  and  _135
REMARK   58  A    between atoms: _138  and  _140
REMARK   59  A    between atoms: _140  and  _141
REMARK   60  A    between atoms: _140  and  _143
REMARK   61  A    between atoms: _143  and  _144
REMARK   62  A    between atoms: _154  and  _156
REMARK   63  A    between atoms: _156  and  _157
REMARK   64  A    between atoms: _156  and  _159
REMARK   65  A    between atoms: _159  and  _160
REMARK   66  A    between atoms: _165  and  _167
REMARK   67  A    between atoms: _167  and  _168
REMARK   68  A    between atoms: _167  and  _170
REMARK   69  A    between atoms: _170  and  _171
REMARK   70  A    between atoms: _171  and  _172
REMARK   71  A    between atoms: _175  and  _177
REMARK   72  A    between atoms: _177  and  _178
REMARK   73  A    between atoms: _177  and  _180
REMARK   74  A    between atoms: _180  and  _181
REMARK   75  A    between atoms: _184  and  _186
REMARK   76  A    between atoms: _186  and  _187
REMARK   77  A    between atoms: _186  and  _189
REMARK   78  A    between atoms: _189  and  _190
REMARK   79  A    between atoms: _193  and  _195
REMARK   80  A    between atoms: _195  and  _196
REMARK   81  A    between atoms: _195  and  _198
REMARK   82  A    between atoms: _198  and  _199
REMARK   83  A    between atoms: _202  and  _204
REMARK   84  A    between atoms: _204  and  _205
REMARK   85  A    between atoms: _208  and  _210
REMARK   86  A    between atoms: _210  and  _211
REMARK   87  A    between atoms: _210  and  _213
REMARK   88  A    between atoms: _213  and  _214
REMARK   89  A    between atoms: _216  and  _218
REMARK   90  A    between atoms: _218  and  _219
REMARK   91  A    between atoms: _218  and  _221
REMARK   92  A    between atoms: _221  and  _222
REMARK   93  A    between atoms: _228  and  _230
REMARK   94  A    between atoms: _230  and  _231
REMARK   95  A    between atoms: _230  and  _233
REMARK   96  A    between atoms: _233  and  _234
REMARK   97  A    between atoms: _236  and  _238
REMARK   98  A    between atoms: _238  and  _239
REMARK   99  A    between atoms: _238  and  _241
REMARK  100  A    between atoms: _241  and  _242
REMARK  101  A    between atoms: _242  and  _243
REMARK  102  A    between atoms: _243  and  _244
REMARK  103  A    between atoms: _253  and  _255
REMARK  104  A    between atoms: _255  and  _256
REMARK  105  A    between atoms: _255  and  _258
REMARK  106  A    between atoms: _258  and  _259
REMARK  107  A    between atoms: _261  and  _263
REMARK  108  A    between atoms: _263  and  _264
REMARK  109  A    between atoms: _263  and  _266
REMARK  110  A    between atoms: _266  and  _267
REMARK  111  A    between atoms: _270  and  _272
REMARK  112  A    between atoms: _272  and  _273
REMARK  113  A    between atoms: _272  and  _275
REMARK  114  A    between atoms: _275  and  _276
REMARK  115  A    between atoms: _279  and  _281
REMARK  116  A    between atoms: _281  and  _282
REMARK  117  A    between atoms: _281  and  _284
REMARK  118  A    between atoms: _284  and  _285
REMARK  119  A    between atoms: _288  and  _290
REMARK  120  A    between atoms: _290  and  _291
REMARK  121  A    between atoms: _294  and  _296
REMARK  122  A    between atoms: _296  and  _297
REMARK  123  A    between atoms: _296  and  _299
REMARK  124  A    between atoms: _299  and  _300
REMARK  125  A    between atoms: _303  and  _305
REMARK  126  A    between atoms: _305  and  _306
REMARK  127  A    between atoms: _308  and  _310
REMARK  128  A    between atoms: _310  and  _311
REMARK  129  A    between atoms: _310  and  _313
REMARK  130  A    between atoms: _313  and  _314
REMARK  131  A    between atoms: _317  and  _319
REMARK  132  A    between atoms: _319  and  _320
REMARK  133  A    between atoms: _319  and  _322
REMARK  134  A    between atoms: _325  and  _327
REMARK  135  A    between atoms: _327  and  _328
REMARK  136  A    between atoms: _327  and  _330
REMARK  137  A    between atoms: _330  and  _331
REMARK  138  A    between atoms: _336  and  _338
REMARK  139  A    between atoms: _338  and  _339
REMARK  140  A    between atoms: _338  and  _341
REMARK  141  A    between atoms: _341  and  _342
REMARK  142  A    between atoms: _342  and  _343
REMARK  143  A    between atoms: _343  and  _344
REMARK  144  A    between atoms: _353  and  _355
REMARK  145  A    between atoms: _355  and  _356
REMARK  146  A    between atoms: _359  and  _361
REMARK  147  A    between atoms: _361  and  _362
REMARK  148  A    between atoms: _361  and  _364
REMARK  149  A    between atoms: _364  and  _365
REMARK  150  A    between atoms: _370  and  _372
REMARK  151  A    between atoms: _372  and  _373
REMARK  152  A    between atoms: _376  and  _378
REMARK  153  A    between atoms: _378  and  _379
REMARK  154  A    between atoms: _381  and  _383
REMARK  155  A    between atoms: _383  and  _384
REMARK  156  A    between atoms: _383  and  _386
REMARK  157  A    between atoms: _389  and  _391
REMARK  158  A    between atoms: _391  and  _392
REMARK  159  A    between atoms: _394  and  _396
REMARK  160  A    between atoms: _396  and  _397
REMARK  161  A    between atoms: _400  and  _402
REMARK  162  A    between atoms: _402  and  _403
REMARK  163  A    between atoms: _402  and  _405
REMARK  164  A    between atoms: _405  and  _406
REMARK  165  A    between atoms: _409  and  _411
REMARK  166  A    between atoms: _411  and  _412
REMARK  167  A    between atoms: _411  and  _414
REMARK  168  A    between atoms: _414  and  _415
REMARK  169  A    between atoms: _421  and  _423
REMARK  170  A    between atoms: _423  and  _424
REMARK  171  A    between atoms: _423  and  _426
REMARK  172  A    between atoms: _426  and  _427
REMARK  173  A    between atoms: _430  and  _432
REMARK  174  A    between atoms: _432  and  _433
REMARK  175  A    between atoms: _432  and  _435
REMARK  176  A    between atoms: _435  and  _436
REMARK  177  A    between atoms: _436  and  _437
REMARK  178  A    between atoms: _437  and  _438
REMARK  179  A    between atoms: _447  and  _449
REMARK  180  A    between atoms: _449  and  _450
REMARK  181  A    between atoms: _449  and  _452
REMARK  182  A    between atoms: _455  and  _457
REMARK  183  A    between atoms: _457  and  _458
REMARK  184  A    between atoms: _457  and  _460
REMARK  185  A    between atoms: _460  and  _461
REMARK  186  A    between atoms: _464  and  _466
REMARK  187  A    between atoms: _466  and  _467
REMARK  188  A    between atoms: _466  and  _469
REMARK  189  A    between atoms: _469  and  _470
REMARK  190  A    between atoms: _470  and  _471
REMARK  191  A    between atoms: _471  and  _472
REMARK  192  A    between atoms: _481  and  _483
REMARK  193  A    between atoms: _483  and  _484
REMARK  194  A    between atoms: _483  and  _486
REMARK  195  A    between atoms: _486  and  _487
REMARK  196  A    between atoms: _490  and  _492
REMARK  197  A    between atoms: _492  and  _493
REMARK  198  A    between atoms: _495  and  _497
REMARK  199  A    between atoms: _497  and  _498
REMARK  200  A    between atoms: _497  and  _500
REMARK  201  A    between atoms: _500  and  _501
REMARK  202  A    between atoms: _504  and  _506
REMARK  203  A    between atoms: _506  and  _507
REMARK  204  A    between atoms: _506  and  _509
REMARK  205  A    between atoms: _509  and  _510
REMARK  206  A    between atoms: _510  and  _511
REMARK  207  A    between atoms: _511  and  _512
REMARK  208  A    between atoms: _512  and  _513
REMARK  209  A    between atoms: _517  and  _519
REMARK  210  A    between atoms: _519  and  _520
REMARK  211  A    between atoms: _519  and  _522
REMARK  212  A    between atoms: _524  and  _526
REMARK  213  A    between atoms: _526  and  _527
REMARK  214  A    between atoms: _526  and  _529
REMARK  215  A    between atoms: _529  and  _530
REMARK  216  A    between atoms: _533  and  _535
REMARK  217  A    between atoms: _535  and  _536
REMARK  218  A    between atoms: _535  and  _538
REMARK  219  A    between atoms: _538  and  _539
REMARK  220  A    between atoms: _539  and  _540
REMARK  221  A    between atoms: _543  and  _545
REMARK  222  A    between atoms: _545  and  _546
REMARK  223  A    between atoms: _545  and  _548
REMARK  224  A    between atoms: _548  and  _549
REMARK  225  A    between atoms: _554  and  _556
REMARK  226  A    between atoms: _556  and  _557
REMARK  227  A    between atoms: _556  and  _559
REMARK  228  A    between atoms: _559  and  _560
REMARK  229  A    between atoms: _563  and  _565
REMARK  230  A    between atoms: _565  and  _566
REMARK  231  A    between atoms: _565  and  _568
REMARK  232  A    between atoms: _568  and  _569
REMARK  233  A    between atoms: _575  and  _577
REMARK  234  A    between atoms: _577  and  _578
REMARK  235  A    between atoms: _577  and  _580
REMARK  236  A    between atoms: _580  and  _581
REMARK  237  A    between atoms: _587  and  _589
REMARK  238  A    between atoms: _589  and  _590
REMARK  239  A    between atoms: _589  and  _592
REMARK  240  A    between atoms: _592  and  _593
REMARK  241  A    between atoms: _596  and  _598
REMARK  242  A    between atoms: _598  and  _599
REMARK  243  A    between atoms: _598  and  _601
REMARK  244  A    between atoms: _601  and  _602
REMARK  245  A    between atoms: _605  and  _607
REMARK  246  A    between atoms: _607  and  _608
REMARK  247  A    between atoms: _607  and  _610
REMARK  248  A    between atoms: _610  and  _611
REMARK                            x       y       z     vdW  Elec       q    Type
REMARK                         _______ _______ _______ _____ _____    ______ ____
ROOT
ATOM      1  O   HOH     1      52.017  53.918  27.304  0.00  0.00    +0.000 OA
ENDROOT
TORSDOF 0
REMARK  Name = ../refined-set-2016/4pp3/4pp3_pocket.pdb
REMARK  248 active torsions:
REMARK  status: ('A' for Active; 'I' for Inactive)
REMARK    1  A    between atoms: _1  and  _3
REMARK    2  A    between atoms: _3  and  _4
REMARK    3  A    between atoms: _3  and  _6
REMARK    4  A    between atoms: _6  and  _7
REMARK    5  A    between atoms: _7  and  _8
REMARK    6  A    between atoms: _12  and  _13
REMARK    7  A    between atoms: _18  and  _20
REMARK    8  A    between atoms: _20  and  _21
REMARK    9  A    between atoms: _20  and  _23
REMARK   10  A    between atoms: _26  and  _28
REMARK   11  A    between atoms: _28  and  _29
REMARK   12  A    between atoms: _28  and  _31
REMARK   13  A    between atoms: _31  and  _32
REMARK   14  A    between atoms: _35  and  _37
REMARK   15  A    between atoms: _37  and  _38
REMARK   16  A    between atoms: _37  and  _40
REMARK   17  A    between atoms: _40  and  _41
REMARK   18  A    between atoms: _46  and  _48
REMARK   19  A    between atoms: _48  and  _49
REMARK   20  A    between atoms: _48  and  _51
REMARK   21  A    between atoms: _51  and  _52
REMARK   22  A    between atoms: _55  and  _57
REMARK   23  A    between atoms: _57  and  _58
REMARK   24  A    between atoms: _57  and  _60
REMARK   25  A    between atoms: _62  and  _64
REMARK   26  A    between atoms: _64  and  _65
REMARK   27  A    between atoms: _64  and  _67
REMARK   28  A    between atoms: _67  and  _68
REMARK   29  A    between atoms: _68  and  _69
REMARK   30  A    between atoms: _74  and  _76
REMARK   31  A    between atoms: _76  and  _77
REMARK   32  A    between atoms: _80  and  _82
REMARK   33  A    between atoms: _82  and  _83
REMARK   34  A    between atoms: _86  and  _88
REMARK   35  A    between atoms: _88  and  _89
REMARK   36  A    between atoms: _88  and  _91
REMARK   37  A    between atoms: _91  and  _92
REMARK   38  A    between atoms: _95  and  _97
REMARK   39  A    between atoms: _97  and  _98
REMARK   40  A    between atoms: _97  and  _100
REMARK   41  A    between atoms: _100  and  _101
REMARK   42  A    between atoms: _101  and  _102
REMARK   43  A    between atoms: _102  and  _103
REMARK   44  A    between atoms: _103  and  _104
REMARK   45  A    between atoms: _108  and  _110
REMARK   46  A    between atoms: _110  and  _111
REMARK   47  A    between atoms: _110  and  _113
REMARK   48  A    between atoms: _113  and  _114
REMARK   49  A    between atoms: _114  and  _115
REMARK   50  A    between atoms: _120  and  _122
REMARK   51  A    between atoms: _122  and  _123
REMARK   52  A    between atoms: _122  and  _125
REMARK   53  A    between atoms: _125  and  _126
REMARK   54  A    between atoms: _129  and  _131
REMARK   55  A    between atoms: _131  and  _132
REMARK   56  A    between atoms: _131  and  _134
REMARK   57  A    between atoms: _134  and  _135
REMARK   58  A    between atoms: _138  and  _140
REMARK   59  A    between atoms: _140  and  _141
REMARK   60  A    between atoms: _140  and  _143
REMARK   61  A    between atoms: _143  and  _144
REMARK   62  A    between atoms: _154  and  _156
REMARK   63  A    between atoms: _156  and  _157
REMARK   64  A    between atoms: _156  and  _159
REMARK   65  A    between atoms: _159  and  _160
REMARK   66  A    between atoms: _165  and  _167
REMARK   67  A    between atoms: _167  and  _168
REMARK   68  A    between atoms: _167  and  _170
REMARK   69  A    between atoms: _170  and  _171
REMARK   70  A    between atoms: _171  and  _172
REMARK   71  A    between atoms: _175  and  _177
REMARK   72  A    between atoms: _177  and  _178
REMARK   73  A    between atoms: _177  and  _180
REMARK   74  A    between atoms: _180  and  _181
REMARK   75  A    between atoms: _184  and  _186
REMARK   76  A    between atoms: _186  and  _187
REMARK   77  A    between atoms: _186  and  _189
REMARK   78  A    between atoms: _189  and  _190
REMARK   79  A    between atoms: _193  and  _195
REMARK   80  A    between atoms: _195  and  _196
REMARK   81  A    between atoms: _195  and  _198
REMARK   82  A    between atoms: _198  and  _199
REMARK   83  A    between atoms: _202  and  _204
REMARK   84  A    between atoms: _204  and  _205
REMARK   85  A    between atoms: _208  and  _210
REMARK   86  A    between atoms: _210  and  _211
REMARK   87  A    between atoms: _210  and  _213
REMARK   88  A    between atoms: _213  and  _214
REMARK   89  A    between atoms: _216  and  _218
REMARK   90  A    between atoms: _218  and  _219
REMARK   91  A    between atoms: _218  and  _221
REMARK   92  A    between atoms: _221  and  _222
REMARK   93  A    between atoms: _228  and  _230
REMARK   94  A    between atoms: _230  and  _231
REMARK   95  A    between atoms: _230  and  _233
REMARK   96  A    between atoms: _233  and  _234
REMARK   97  A    between atoms: _236  and  _238
REMARK   98  A    between atoms: _238  and  _239
REMARK   99  A    between atoms: _238  and  _241
REMARK  100  A    between atoms: _241  and  _242
REMARK  101  A    between atoms: _242  and  _243
REMARK  102  A    between atoms: _243  and  _244
REMARK  103  A    between atoms: _253  and  _255
REMARK  104  A    between atoms: _255  and  _256
REMARK  105  A    between atoms: _255  and  _258
REMARK  106  A    between atoms: _258  and  _259
REMARK  107  A    between atoms: _261  and  _263
REMARK  108  A    between atoms: _263  and  _264
REMARK  109  A    between atoms: _263  and  _266
REMARK  110  A    between atoms: _266  and  _267
REMARK  111  A    between atoms: _270  and  _272
REMARK  112  A    between atoms: _272  and  _273
REMARK  113  A    between atoms: _272  and  _275
REMARK  114  A    between atoms: _275  and  _276
REMARK  115  A    between atoms: _279  and  _281
REMARK  116  A    between atoms: _281  and  _282
REMARK  117  A    between atoms: _281  and  _284
REMARK  118  A    between atoms: _284  and  _285
REMARK  119  A    between atoms: _288  and  _290
REMARK  120  A    between atoms: _290  and  _291
REMARK  121  A    between atoms: _294  and  _296
REMARK  122  A    between atoms: _296  and  _297
REMARK  123  A    between atoms: _296  and  _299
REMARK  124  A    between atoms: _299  and  _300
REMARK  125  A    between atoms: _303  and  _305
REMARK  126  A    between atoms: _305  and  _306
REMARK  127  A    between atoms: _308  and  _310
REMARK  128  A    between atoms: _310  and  _311
REMARK  129  A    between atoms: _310  and  _313
REMARK  130  A    between atoms: _313  and  _314
REMARK  131  A    between atoms: _317  and  _319
REMARK  132  A    between atoms: _319  and  _320
REMARK  133  A    between atoms: _319  and  _322
REMARK  134  A    between atoms: _325  and  _327
REMARK  135  A    between atoms: _327  and  _328
REMARK  136  A    between atoms: _327  and  _330
REMARK  137  A    between atoms: _330  and  _331
REMARK  138  A    between atoms: _336  and  _338
REMARK  139  A    between atoms: _338  and  _339
REMARK  140  A    between atoms: _338  and  _341
REMARK  141  A    between atoms: _341  and  _342
REMARK  142  A    between atoms: _342  and  _343
REMARK  143  A    between atoms: _343  and  _344
REMARK  144  A    between atoms: _353  and  _355
REMARK  145  A    between atoms: _355  and  _356
REMARK  146  A    between atoms: _359  and  _361
REMARK  147  A    between atoms: _361  and  _362
REMARK  148  A    between atoms: _361  and  _364
REMARK  149  A    between atoms: _364  and  _365
REMARK  150  A    between atoms: _370  and  _372
REMARK  151  A    between atoms: _372  and  _373
REMARK  152  A    between atoms: _376  and  _378
REMARK  153  A    between atoms: _378  and  _379
REMARK  154  A    between atoms: _381  and  _383
REMARK  155  A    between atoms: _383  and  _384
REMARK  156  A    between atoms: _383  and  _386
REMARK  157  A    between atoms: _389  and  _391
REMARK  158  A    between atoms: _391  and  _392
REMARK  159  A    between atoms: _394  and  _396
REMARK  160  A    between atoms: _396  and  _397
REMARK  161  A    between atoms: _400  and  _402
REMARK  162  A    between atoms: _402  and  _403
REMARK  163  A    between atoms: _402  and  _405
REMARK  164  A    between atoms: _405  and  _406
REMARK  165  A    between atoms: _409  and  _411
REMARK  166  A    between atoms: _411  and  _412
REMARK  167  A    between atoms: _411  and  _414
REMARK  168  A    between atoms: _414  and  _415
REMARK  169  A    between atoms: _421  and  _423
REMARK  170  A    between atoms: _423  and  _424
REMARK  171  A    between atoms: _423  and  _426
REMARK  172  A    between atoms: _426  and  _427
REMARK  173  A    between atoms: _430  and  _432
REMARK  174  A    between atoms: _432  and  _433
REMARK  175  A    between atoms: _432  and  _435
REMARK  176  A    between atoms: _435  and  _436
REMARK  177  A    between atoms: _436  and  _437
REMARK  178  A    between atoms: _437  and  _438
REMARK  179  A    between atoms: _447  and  _449
REMARK  180  A    between atoms: _449  and  _450
REMARK  181  A    between atoms: _449  and  _452
REMARK  182  A    between atoms: _455  and  _457
REMARK  183  A    between atoms: _457  and  _458
REMARK  184  A    between atoms: _457  and  _460
REMARK  185  A    between atoms: _460  and  _461
REMARK  186  A    between atoms: _464  and  _466
REMARK  187  A    between atoms: _466  and  _467
REMARK  188  A    between atoms: _466  and  _469
REMARK  189  A    between atoms: _469  and  _470
REMARK  190  A    between atoms: _470  and  _471
REMARK  191  A    between atoms: _471  and  _472
REMARK  192  A    between atoms: _481  and  _483
REMARK  193  A    between atoms: _483  and  _484
REMARK  194  A    between atoms: _483  and  _486
REMARK  195  A    between atoms: _486  and  _487
REMARK  196  A    between atoms: _490  and  _492
REMARK  197  A    between atoms: _492  and  _493
REMARK  198  A    between atoms: _495  and  _497
REMARK  199  A    between atoms: _497  and  _498
REMARK  200  A    between atoms: _497  and  _500
REMARK  201  A    between atoms: _500  and  _501
REMARK  202  A    between atoms: _504  and  _506
REMARK  203  A    between atoms: _506  and  _507
REMARK  204  A    between atoms: _506  and  _509
REMARK  205  A    between atoms: _509  and  _510
REMARK  206  A    between atoms: _510  and  _511
REMARK  207  A    between atoms: _511  and  _512
REMARK  208  A    between atoms: _512  and  _513
REMARK  209  A    between atoms: _517  and  _519
REMARK  210  A    between atoms: _519  and  _520
REMARK  211  A    between atoms: _519  and  _522
REMARK  212  A    between atoms: _524  and  _526
REMARK  213  A    between atoms: _526  and  _527
REMARK  214  A    between atoms: _526  and  _529
REMARK  215  A    between atoms: _529  and  _530
REMARK  216  A    between atoms: _533  and  _535
REMARK  217  A    between atoms: _535  and  _536
REMARK  218  A    between atoms: _535  and  _538
REMARK  219  A    between atoms: _538  and  _539
REMARK  220  A    between atoms: _539  and  _540
REMARK  221  A    between atoms: _543  and  _545
REMARK  222  A    between atoms: _545  and  _546
REMARK  223  A    between atoms: _545  and  _548
REMARK  224  A    between atoms: _548  and  _549
REMARK  225  A    between atoms: _554  and  _556
REMARK  226  A    between atoms: _556  and  _557
REMARK  227  A    between atoms: _556  and  _559
REMARK  228  A    between atoms: _559  and  _560
REMARK  229  A    between atoms: _563  and  _565
REMARK  230  A    between atoms: _565  and  _566
REMARK  231  A    between atoms: _565  and  _568
REMARK  232  A    between atoms: _568  and  _569
REMARK  233  A    between atoms: _575  and  _577
REMARK  234  A    between atoms: _577  and  _578
REMARK  235  A    between atoms: _577  and  _580
REMARK  236  A    between atoms: _580  and  _581
REMARK  237  A    between atoms: _587  and  _589
REMARK  238  A    between atoms: _589  and  _590
REMARK  239  A    between atoms: _589  and  _592
REMARK  240  A    between atoms: _592  and  _593
REMARK  241  A    between atoms: _596  and  _598
REMARK  242  A    between atoms: _598  and  _599
REMARK  243  A    between atoms: _598  and  _601
REMARK  244  A    between atoms: _601  and  _602
REMARK  245  A    between atoms: _605  and  _607
REMARK  246  A    between atoms: _607  and  _608
REMARK  247  A    between atoms: _607  and  _610
REMARK  248  A    between atoms: _610  and  _611
REMARK                            x       y       z     vdW  Elec       q    Type
REMARK                         _______ _______ _______ _____ _____    ______ ____
ROOT
ATOM      1  O   HOH     1      54.403  49.511  23.613  0.00  0.00    +0.000 OA
ENDROOT
TORSDOF 0
REMARK  Name = ../refined-set-2016/4pp3/4pp3_pocket.pdb
REMARK  248 active torsions:
REMARK  status: ('A' for Active; 'I' for Inactive)
REMARK    1  A    between atoms: _1  and  _3
REMARK    2  A    between atoms: _3  and  _4
REMARK    3  A    between atoms: _3  and  _6
REMARK    4  A    between atoms: _6  and  _7
REMARK    5  A    between atoms: _7  and  _8
REMARK    6  A    between atoms: _12  and  _13
REMARK    7  A    between atoms: _18  and  _20
REMARK    8  A    between atoms: _20  and  _21
REMARK    9  A    between atoms: _20  and  _23
REMARK   10  A    between atoms: _26  and  _28
REMARK   11  A    between atoms: _28  and  _29
REMARK   12  A    between atoms: _28  and  _31
REMARK   13  A    between atoms: _31  and  _32
REMARK   14  A    between atoms: _35  and  _37
REMARK   15  A    between atoms: _37  and  _38
REMARK   16  A    between atoms: _37  and  _40
REMARK   17  A    between atoms: _40  and  _41
REMARK   18  A    between atoms: _46  and  _48
REMARK   19  A    between atoms: _48  and  _49
REMARK   20  A    between atoms: _48  and  _51
REMARK   21  A    between atoms: _51  and  _52
REMARK   22  A    between atoms: _55  and  _57
REMARK   23  A    between atoms: _57  and  _58
REMARK   24  A    between atoms: _57  and  _60
REMARK   25  A    between atoms: _62  and  _64
REMARK   26  A    between atoms: _64  and  _65
REMARK   27  A    between atoms: _64  and  _67
REMARK   28  A    between atoms: _67  and  _68
REMARK   29  A    between atoms: _68  and  _69
REMARK   30  A    between atoms: _74  and  _76
REMARK   31  A    between atoms: _76  and  _77
REMARK   32  A    between atoms: _80  and  _82
REMARK   33  A    between atoms: _82  and  _83
REMARK   34  A    between atoms: _86  and  _88
REMARK   35  A    between atoms: _88  and  _89
REMARK   36  A    between atoms: _88  and  _91
REMARK   37  A    between atoms: _91  and  _92
REMARK   38  A    between atoms: _95  and  _97
REMARK   39  A    between atoms: _97  and  _98
REMARK   40  A    between atoms: _97  and  _100
REMARK   41  A    between atoms: _100  and  _101
REMARK   42  A    between atoms: _101  and  _102
REMARK   43  A    between atoms: _102  and  _103
REMARK   44  A    between atoms: _103  and  _104
REMARK   45  A    between atoms: _108  and  _110
REMARK   46  A    between atoms: _110  and  _111
REMARK   47  A    between atoms: _110  and  _113
REMARK   48  A    between atoms: _113  and  _114
REMARK   49  A    between atoms: _114  and  _115
REMARK   50  A    between atoms: _120  and  _122
REMARK   51  A    between atoms: _122  and  _123
REMARK   52  A    between atoms: _122  and  _125
REMARK   53  A    between atoms: _125  and  _126
REMARK   54  A    between atoms: _129  and  _131
REMARK   55  A    between atoms: _131  and  _132
REMARK   56  A    between atoms: _131  and  _134
REMARK   57  A    between atoms: _134  and  _135
REMARK   58  A    between atoms: _138  and  _140
REMARK   59  A    between atoms: _140  and  _141
REMARK   60  A    between atoms: _140  and  _143
REMARK   61  A    between atoms: _143  and  _144
REMARK   62  A    between atoms: _154  and  _156
REMARK   63  A    between atoms: _156  and  _157
REMARK   64  A    between atoms: _156  and  _159
REMARK   65  A    between atoms: _159  and  _160
REMARK   66  A    between atoms: _165  and  _167
REMARK   67  A    between atoms: _167  and  _168
REMARK   68  A    between atoms: _167  and  _170
REMARK   69  A    between atoms: _170  and  _171
REMARK   70  A    between atoms: _171  and  _172
REMARK   71  A    between atoms: _175  and  _177
REMARK   72  A    between atoms: _177  and  _178
REMARK   73  A    between atoms: _177  and  _180
REMARK   74  A    between atoms: _180  and  _181
REMARK   75  A    between atoms: _184  and  _186
REMARK   76  A    between atoms: _186  and  _187
REMARK   77  A    between atoms: _186  and  _189
REMARK   78  A    between atoms: _189  and  _190
REMARK   79  A    between atoms: _193  and  _195
REMARK   80  A    between atoms: _195  and  _196
REMARK   81  A    between atoms: _195  and  _198
REMARK   82  A    between atoms: _198  and  _199
REMARK   83  A    between atoms: _202  and  _204
REMARK   84  A    between atoms: _204  and  _205
REMARK   85  A    between atoms: _208  and  _210
REMARK   86  A    between atoms: _210  and  _211
REMARK   87  A    between atoms: _210  and  _213
REMARK   88  A    between atoms: _213  and  _214
REMARK   89  A    between atoms: _216  and  _218
REMARK   90  A    between atoms: _218  and  _219
REMARK   91  A    between atoms: _218  and  _221
REMARK   92  A    between atoms: _221  and  _222
REMARK   93  A    between atoms: _228  and  _230
REMARK   94  A    between atoms: _230  and  _231
REMARK   95  A    between atoms: _230  and  _233
REMARK   96  A    between atoms: _233  and  _234
REMARK   97  A    between atoms: _236  and  _238
REMARK   98  A    between atoms: _238  and  _239
REMARK   99  A    between atoms: _238  and  _241
REMARK  100  A    between atoms: _241  and  _242
REMARK  101  A    between atoms: _242  and  _243
REMARK  102  A    between atoms: _243  and  _244
REMARK  103  A    between atoms: _253  and  _255
REMARK  104  A    between atoms: _255  and  _256
REMARK  105  A    between atoms: _255  and  _258
REMARK  106  A    between atoms: _258  and  _259
REMARK  107  A    between atoms: _261  and  _263
REMARK  108  A    between atoms: _263  and  _264
REMARK  109  A    between atoms: _263  and  _266
REMARK  110  A    between atoms: _266  and  _267
REMARK  111  A    between atoms: _270  and  _272
REMARK  112  A    between atoms: _272  and  _273
REMARK  113  A    between atoms: _272  and  _275
REMARK  114  A    between atoms: _275  and  _276
REMARK  115  A    between atoms: _279  and  _281
REMARK  116  A    between atoms: _281  and  _282
REMARK  117  A    between atoms: _281  and  _284
REMARK  118  A    between atoms: _284  and  _285
REMARK  119  A    between atoms: _288  and  _290
REMARK  120  A    between atoms: _290  and  _291
REMARK  121  A    between atoms: _294  and  _296
REMARK  122  A    between atoms: _296  and  _297
REMARK  123  A    between atoms: _296  and  _299
REMARK  124  A    between atoms: _299  and  _300
REMARK  125  A    between atoms: _303  and  _305
REMARK  126  A    between atoms: _305  and  _306
REMARK  127  A    between atoms: _308  and  _310
REMARK  128  A    between atoms: _310  and  _311
REMARK  129  A    between atoms: _310  and  _313
REMARK  130  A    between atoms: _313  and  _314
REMARK  131  A    between atoms: _317  and  _319
REMARK  132  A    between atoms: _319  and  _320
REMARK  133  A    between atoms: _319  and  _322
REMARK  134  A    between atoms: _325  and  _327
REMARK  135  A    between atoms: _327  and  _328
REMARK  136  A    between atoms: _327  and  _330
REMARK  137  A    between atoms: _330  and  _331
REMARK  138  A    between atoms: _336  and  _338
REMARK  139  A    between atoms: _338  and  _339
REMARK  140  A    between atoms: _338  and  _341
REMARK  141  A    between atoms: _341  and  _342
REMARK  142  A    between atoms: _342  and  _343
REMARK  143  A    between atoms: _343  and  _344
REMARK  144  A    between atoms: _353  and  _355
REMARK  145  A    between atoms: _355  and  _356
REMARK  146  A    between atoms: _359  and  _361
REMARK  147  A    between atoms: _361  and  _362
REMARK  148  A    between atoms: _361  and  _364
REMARK  149  A    between atoms: _364  and  _365
REMARK  150  A    between atoms: _370  and  _372
REMARK  151  A    between atoms: _372  and  _373
REMARK  152  A    between atoms: _376  and  _378
REMARK  153  A    between atoms: _378  and  _379
REMARK  154  A    between atoms: _381  and  _383
REMARK  155  A    between atoms: _383  and  _384
REMARK  156  A    between atoms: _383  and  _386
REMARK  157  A    between atoms: _389  and  _391
REMARK  158  A    between atoms: _391  and  _392
REMARK  159  A    between atoms: _394  and  _396
REMARK  160  A    between atoms: _396  and  _397
REMARK  161  A    between atoms: _400  and  _402
REMARK  162  A    between atoms: _402  and  _403
REMARK  163  A    between atoms: _402  and  _405
REMARK  164  A    between atoms: _405  and  _406
REMARK  165  A    between atoms: _409  and  _411
REMARK  166  A    between atoms: _411  and  _412
REMARK  167  A    between atoms: _411  and  _414
REMARK  168  A    between atoms: _414  and  _415
REMARK  169  A    between atoms: _421  and  _423
REMARK  170  A    between atoms: _423  and  _424
REMARK  171  A    between atoms: _423  and  _426
REMARK  172  A    between atoms: _426  and  _427
REMARK  173  A    between atoms: _430  and  _432
REMARK  174  A    between atoms: _432  and  _433
REMARK  175  A    between atoms: _432  and  _435
REMARK  176  A    between atoms: _435  and  _436
REMARK  177  A    between atoms: _436  and  _437
REMARK  178  A    between atoms: _437  and  _438
REMARK  179  A    between atoms: _447  and  _449
REMARK  180  A    between atoms: _449  and  _450
REMARK  181  A    between atoms: _449  and  _452
REMARK  182  A    between atoms: _455  and  _457
REMARK  183  A    between atoms: _457  and  _458
REMARK  184  A    between atoms: _457  and  _460
REMARK  185  A    between atoms: _460  and  _461
REMARK  186  A    between atoms: _464  and  _466
REMARK  187  A    between atoms: _466  and  _467
REMARK  188  A    between atoms: _466  and  _469
REMARK  189  A    between atoms: _469  and  _470
REMARK  190  A    between atoms: _470  and  _471
REMARK  191  A    between atoms: _471  and  _472
REMARK  192  A    between atoms: _481  and  _483
REMARK  193  A    between atoms: _483  and  _484
REMARK  194  A    between atoms: _483  and  _486
REMARK  195  A    between atoms: _486  and  _487
REMARK  196  A    between atoms: _490  and  _492
REMARK  197  A    between atoms: _492  and  _493
REMARK  198  A    between atoms: _495  and  _497
REMARK  199  A    between atoms: _497  and  _498
REMARK  200  A    between atoms: _497  and  _500
REMARK  201  A    between atoms: _500  and  _501
REMARK  202  A    between atoms: _504  and  _506
REMARK  203  A    between atoms: _506  and  _507
REMARK  204  A    between atoms: _506  and  _509
REMARK  205  A    between atoms: _509  and  _510
REMARK  206  A    between atoms: _510  and  _511
REMARK  207  A    between atoms: _511  and  _512
REMARK  208  A    between atoms: _512  and  _513
REMARK  209  A    between atoms: _517  and  _519
REMARK  210  A    between atoms: _519  and  _520
REMARK  211  A    between atoms: _519  and  _522
REMARK  212  A    between atoms: _524  and  _526
REMARK  213  A    between atoms: _526  and  _527
REMARK  214  A    between atoms: _526  and  _529
REMARK  215  A    between atoms: _529  and  _530
REMARK  216  A    between atoms: _533  and  _535
REMARK  217  A    between atoms: _535  and  _536
REMARK  218  A    between atoms: _535  and  _538
REMARK  219  A    between atoms: _538  and  _539
REMARK  220  A    between atoms: _539  and  _540
REMARK  221  A    between atoms: _543  and  _545
REMARK  222  A    between atoms: _545  and  _546
REMARK  223  A    between atoms: _545  and  _548
REMARK  224  A    between atoms: _548  and  _549
REMARK  225  A    between atoms: _554  and  _556
REMARK  226  A    between atoms: _556  and  _557
REMARK  227  A    between atoms: _556  and  _559
REMARK  228  A    between atoms: _559  and  _560
REMARK  229  A    between atoms: _563  and  _565
REMARK  230  A    between atoms: _565  and  _566
REMARK  231  A    between atoms: _565  and  _568
REMARK  232  A    between atoms: _568  and  _569
REMARK  233  A    between atoms: _575  and  _577
REMARK  234  A    between atoms: _577  and  _578
REMARK  235  A    between atoms: _577  and  _580
REMARK  236  A    between atoms: _580  and  _581
REMARK  237  A    between atoms: _587  and  _589
REMARK  238  A    between atoms: _589  and  _590
REMARK  239  A    between atoms: _589  and  _592
REMARK  240  A    between atoms: _592  and  _593
REMARK  241  A    between atoms: _596  and  _598
REMARK  242  A    between atoms: _598  and  _599
REMARK  243  A    between atoms: _598  and  _601
REMARK  244  A    between atoms: _601  and  _602
REMARK  245  A    between atoms: _605  and  _607
REMARK  246  A    between atoms: _607  and  _608
REMARK  247  A    between atoms: _607  and  _610
REMARK  248  A    between atoms: _610  and  _611
REMARK                            x       y       z     vdW  Elec       q    Type
REMARK                         _______ _______ _______ _____ _____    ______ ____
ROOT
ATOM      1  O   HOH     1      52.259  51.170  26.065  0.00  0.00    +0.000 OA
ENDROOT
TORSDOF 0
REMARK  Name = ../refined-set-2016/4pp3/4pp3_pocket.pdb
REMARK  248 active torsions:
REMARK  status: ('A' for Active; 'I' for Inactive)
REMARK    1  A    between atoms: _1  and  _3
REMARK    2  A    between atoms: _3  and  _4
REMARK    3  A    between atoms: _3  and  _6
REMARK    4  A    between atoms: _6  and  _7
REMARK    5  A    between atoms: _7  and  _8
REMARK    6  A    between atoms: _12  and  _13
REMARK    7  A    between atoms: _18  and  _20
REMARK    8  A    between atoms: _20  and  _21
REMARK    9  A    between atoms: _20  and  _23
REMARK   10  A    between atoms: _26  and  _28
REMARK   11  A    between atoms: _28  and  _29
REMARK   12  A    between atoms: _28  and  _31
REMARK   13  A    between atoms: _31  and  _32
REMARK   14  A    between atoms: _35  and  _37
REMARK   15  A    between atoms: _37  and  _38
REMARK   16  A    between atoms: _37  and  _40
REMARK   17  A    between atoms: _40  and  _41
REMARK   18  A    between atoms: _46  and  _48
REMARK   19  A    between atoms: _48  and  _49
REMARK   20  A    between atoms: _48  and  _51
REMARK   21  A    between atoms: _51  and  _52
REMARK   22  A    between atoms: _55  and  _57
REMARK   23  A    between atoms: _57  and  _58
REMARK   24  A    between atoms: _57  and  _60
REMARK   25  A    between atoms: _62  and  _64
REMARK   26  A    between atoms: _64  and  _65
REMARK   27  A    between atoms: _64  and  _67
REMARK   28  A    between atoms: _67  and  _68
REMARK   29  A    between atoms: _68  and  _69
REMARK   30  A    between atoms: _74  and  _76
REMARK   31  A    between atoms: _76  and  _77
REMARK   32  A    between atoms: _80  and  _82
REMARK   33  A    between atoms: _82  and  _83
REMARK   34  A    between atoms: _86  and  _88
REMARK   35  A    between atoms: _88  and  _89
REMARK   36  A    between atoms: _88  and  _91
REMARK   37  A    between atoms: _91  and  _92
REMARK   38  A    between atoms: _95  and  _97
REMARK   39  A    between atoms: _97  and  _98
REMARK   40  A    between atoms: _97  and  _100
REMARK   41  A    between atoms: _100  and  _101
REMARK   42  A    between atoms: _101  and  _102
REMARK   43  A    between atoms: _102  and  _103
REMARK   44  A    between atoms: _103  and  _104
REMARK   45  A    between atoms: _108  and  _110
REMARK   46  A    between atoms: _110  and  _111
REMARK   47  A    between atoms: _110  and  _113
REMARK   48  A    between atoms: _113  and  _114
REMARK   49  A    between atoms: _114  and  _115
REMARK   50  A    between atoms: _120  and  _122
REMARK   51  A    between atoms: _122  and  _123
REMARK   52  A    between atoms: _122  and  _125
REMARK   53  A    between atoms: _125  and  _126
REMARK   54  A    between atoms: _129  and  _131
REMARK   55  A    between atoms: _131  and  _132
REMARK   56  A    between atoms: _131  and  _134
REMARK   57  A    between atoms: _134  and  _135
REMARK   58  A    between atoms: _138  and  _140
REMARK   59  A    between atoms: _140  and  _141
REMARK   60  A    between atoms: _140  and  _143
REMARK   61  A    between atoms: _143  and  _144
REMARK   62  A    between atoms: _154  and  _156
REMARK   63  A    between atoms: _156  and  _157
REMARK   64  A    between atoms: _156  and  _159
REMARK   65  A    between atoms: _159  and  _160
REMARK   66  A    between atoms: _165  and  _167
REMARK   67  A    between atoms: _167  and  _168
REMARK   68  A    between atoms: _167  and  _170
REMARK   69  A    between atoms: _170  and  _171
REMARK   70  A    between atoms: _171  and  _172
REMARK   71  A    between atoms: _175  and  _177
REMARK   72  A    between atoms: _177  and  _178
REMARK   73  A    between atoms: _177  and  _180
REMARK   74  A    between atoms: _180  and  _181
REMARK   75  A    between atoms: _184  and  _186
REMARK   76  A    between atoms: _186  and  _187
REMARK   77  A    between atoms: _186  and  _189
REMARK   78  A    between atoms: _189  and  _190
REMARK   79  A    between atoms: _193  and  _195
REMARK   80  A    between atoms: _195  and  _196
REMARK   81  A    between atoms: _195  and  _198
REMARK   82  A    between atoms: _198  and  _199
REMARK   83  A    between atoms: _202  and  _204
REMARK   84  A    between atoms: _204  and  _205
REMARK   85  A    between atoms: _208  and  _210
REMARK   86  A    between atoms: _210  and  _211
REMARK   87  A    between atoms: _210  and  _213
REMARK   88  A    between atoms: _213  and  _214
REMARK   89  A    between atoms: _216  and  _218
REMARK   90  A    between atoms: _218  and  _219
REMARK   91  A    between atoms: _218  and  _221
REMARK   92  A    between atoms: _221  and  _222
REMARK   93  A    between atoms: _228  and  _230
REMARK   94  A    between atoms: _230  and  _231
REMARK   95  A    between atoms: _230  and  _233
REMARK   96  A    between atoms: _233  and  _234
REMARK   97  A    between atoms: _236  and  _238
REMARK   98  A    between atoms: _238  and  _239
REMARK   99  A    between atoms: _238  and  _241
REMARK  100  A    between atoms: _241  and  _242
REMARK  101  A    between atoms: _242  and  _243
REMARK  102  A    between atoms: _243  and  _244
REMARK  103  A    between atoms: _253  and  _255
REMARK  104  A    between atoms: _255  and  _256
REMARK  105  A    between atoms: _255  and  _258
REMARK  106  A    between atoms: _258  and  _259
REMARK  107  A    between atoms: _261  and  _263
REMARK  108  A    between atoms: _263  and  _264
REMARK  109  A    between atoms: _263  and  _266
REMARK  110  A    between atoms: _266  and  _267
REMARK  111  A    between atoms: _270  and  _272
REMARK  112  A    between atoms: _272  and  _273
REMARK  113  A    between atoms: _272  and  _275
REMARK  114  A    between atoms: _275  and  _276
REMARK  115  A    between atoms: _279  and  _281
REMARK  116  A    between atoms: _281  and  _282
REMARK  117  A    between atoms: _281  and  _284
REMARK  118  A    between atoms: _284  and  _285
REMARK  119  A    between atoms: _288  and  _290
REMARK  120  A    between atoms: _290  and  _291
REMARK  121  A    between atoms: _294  and  _296
REMARK  122  A    between atoms: _296  and  _297
REMARK  123  A    between atoms: _296  and  _299
REMARK  124  A    between atoms: _299  and  _300
REMARK  125  A    between atoms: _303  and  _305
REMARK  126  A    between atoms: _305  and  _306
REMARK  127  A    between atoms: _308  and  _310
REMARK  128  A    between atoms: _310  and  _311
REMARK  129  A    between atoms: _310  and  _313
REMARK  130  A    between atoms: _313  and  _314
REMARK  131  A    between atoms: _317  and  _319
REMARK  132  A    between atoms: _319  and  _320
REMARK  133  A    between atoms: _319  and  _322
REMARK  134  A    between atoms: _325  and  _327
REMARK  135  A    between atoms: _327  and  _328
REMARK  136  A    between atoms: _327  and  _330
REMARK  137  A    between atoms: _330  and  _331
REMARK  138  A    between atoms: _336  and  _338
REMARK  139  A    between atoms: _338  and  _339
REMARK  140  A    between atoms: _338  and  _341
REMARK  141  A    between atoms: _341  and  _342
REMARK  142  A    between atoms: _342  and  _343
REMARK  143  A    between atoms: _343  and  _344
REMARK  144  A    between atoms: _353  and  _355
REMARK  145  A    between atoms: _355  and  _356
REMARK  146  A    between atoms: _359  and  _361
REMARK  147  A    between atoms: _361  and  _362
REMARK  148  A    between atoms: _361  and  _364
REMARK  149  A    between atoms: _364  and  _365
REMARK  150  A    between atoms: _370  and  _372
REMARK  151  A    between atoms: _372  and  _373
REMARK  152  A    between atoms: _376  and  _378
REMARK  153  A    between atoms: _378  and  _379
REMARK  154  A    between atoms: _381  and  _383
REMARK  155  A    between atoms: _383  and  _384
REMARK  156  A    between atoms: _383  and  _386
REMARK  157  A    between atoms: _389  and  _391
REMARK  158  A    between atoms: _391  and  _392
REMARK  159  A    between atoms: _394  and  _396
REMARK  160  A    between atoms: _396  and  _397
REMARK  161  A    between atoms: _400  and  _402
REMARK  162  A    between atoms: _402  and  _403
REMARK  163  A    between atoms: _402  and  _405
REMARK  164  A    between atoms: _405  and  _406
REMARK  165  A    between atoms: _409  and  _411
REMARK  166  A    between atoms: _411  and  _412
REMARK  167  A    between atoms: _411  and  _414
REMARK  168  A    between atoms: _414  and  _415
REMARK  169  A    between atoms: _421  and  _423
REMARK  170  A    between atoms: _423  and  _424
REMARK  171  A    between atoms: _423  and  _426
REMARK  172  A    between atoms: _426  and  _427
REMARK  173  A    between atoms: _430  and  _432
REMARK  174  A    between atoms: _432  and  _433
REMARK  175  A    between atoms: _432  and  _435
REMARK  176  A    between atoms: _435  and  _436
REMARK  177  A    between atoms: _436  and  _437
REMARK  178  A    between atoms: _437  and  _438
REMARK  179  A    between atoms: _447  and  _449
REMARK  180  A    between atoms: _449  and  _450
REMARK  181  A    between atoms: _449  and  _452
REMARK  182  A    between atoms: _455  and  _457
REMARK  183  A    between atoms: _457  and  _458
REMARK  184  A    between atoms: _457  and  _460
REMARK  185  A    between atoms: _460  and  _461
REMARK  186  A    between atoms: _464  and  _466
REMARK  187  A    between atoms: _466  and  _467
REMARK  188  A    between atoms: _466  and  _469
REMARK  189  A    between atoms: _469  and  _470
REMARK  190  A    between atoms: _470  and  _471
REMARK  191  A    between atoms: _471  and  _472
REMARK  192  A    between atoms: _481  and  _483
REMARK  193  A    between atoms: _483  and  _484
REMARK  194  A    between atoms: _483  and  _486
REMARK  195  A    between atoms: _486  and  _487
REMARK  196  A    between atoms: _490  and  _492
REMARK  197  A    between atoms: _492  and  _493
REMARK  198  A    between atoms: _495  and  _497
REMARK  199  A    between atoms: _497  and  _498
REMARK  200  A    between atoms: _497  and  _500
REMARK  201  A    between atoms: _500  and  _501
REMARK  202  A    between atoms: _504  and  _506
REMARK  203  A    between atoms: _506  and  _507
REMARK  204  A    between atoms: _506  and  _509
REMARK  205  A    between atoms: _509  and  _510
REMARK  206  A    between atoms: _510  and  _511
REMARK  207  A    between atoms: _511  and  _512
REMARK  208  A    between atoms: _512  and  _513
REMARK  209  A    between atoms: _517  and  _519
REMARK  210  A    between atoms: _519  and  _520
REMARK  211  A    between atoms: _519  and  _522
REMARK  212  A    between atoms: _524  and  _526
REMARK  213  A    between atoms: _526  and  _527
REMARK  214  A    between atoms: _526  and  _529
REMARK  215  A    between atoms: _529  and  _530
REMARK  216  A    between atoms: _533  and  _535
REMARK  217  A    between atoms: _535  and  _536
REMARK  218  A    between atoms: _535  and  _538
REMARK  219  A    between atoms: _538  and  _539
REMARK  220  A    between atoms: _539  and  _540
REMARK  221  A    between atoms: _543  and  _545
REMARK  222  A    between atoms: _545  and  _546
REMARK  223  A    between atoms: _545  and  _548
REMARK  224  A    between atoms: _548  and  _549
REMARK  225  A    between atoms: _554  and  _556
REMARK  226  A    between atoms: _556  and  _557
REMARK  227  A    between atoms: _556  and  _559
REMARK  228  A    between atoms: _559  and  _560
REMARK  229  A    between atoms: _563  and  _565
REMARK  230  A    between atoms: _565  and  _566
REMARK  231  A    between atoms: _565  and  _568
REMARK  232  A    between atoms: _568  and  _569
REMARK  233  A    between atoms: _575  and  _577
REMARK  234  A    between atoms: _577  and  _578
REMARK  235  A    between atoms: _577  and  _580
REMARK  236  A    between atoms: _580  and  _581
REMARK  237  A    between atoms: _587  and  _589
REMARK  238  A    between atoms: _589  and  _590
REMARK  239  A    between atoms: _589  and  _592
REMARK  240  A    between atoms: _592  and  _593
REMARK  241  A    between atoms: _596  and  _598
REMARK  242  A    between atoms: _598  and  _599
REMARK  243  A    between atoms: _598  and  _601
REMARK  244  A    between atoms: _601  and  _602
REMARK  245  A    between atoms: _605  and  _607
REMARK  246  A    between atoms: _607  and  _608
REMARK  247  A    between atoms: _607  and  _610
REMARK  248  A    between atoms: _610  and  _611
REMARK                            x       y       z     vdW  Elec       q    Type
REMARK                         _______ _______ _______ _____ _____    ______ ____
ROOT
ATOM      1  O   HOH     1      73.375  51.015  35.747  0.00  0.00    +0.000 OA
ENDROOT
TORSDOF 0
REMARK  Name = ../refined-set-2016/4pp3/4pp3_pocket.pdb
REMARK  248 active torsions:
REMARK  status: ('A' for Active; 'I' for Inactive)
REMARK    1  A    between atoms: _1  and  _3
REMARK    2  A    between atoms: _3  and  _4
REMARK    3  A    between atoms: _3  and  _6
REMARK    4  A    between atoms: _6  and  _7
REMARK    5  A    between atoms: _7  and  _8
REMARK    6  A    between atoms: _12  and  _13
REMARK    7  A    between atoms: _18  and  _20
REMARK    8  A    between atoms: _20  and  _21
REMARK    9  A    between atoms: _20  and  _23
REMARK   10  A    between atoms: _26  and  _28
REMARK   11  A    between atoms: _28  and  _29
REMARK   12  A    between atoms: _28  and  _31
REMARK   13  A    between atoms: _31  and  _32
REMARK   14  A    between atoms: _35  and  _37
REMARK   15  A    between atoms: _37  and  _38
REMARK   16  A    between atoms: _37  and  _40
REMARK   17  A    between atoms: _40  and  _41
REMARK   18  A    between atoms: _46  and  _48
REMARK   19  A    between atoms: _48  and  _49
REMARK   20  A    between atoms: _48  and  _51
REMARK   21  A    between atoms: _51  and  _52
REMARK   22  A    between atoms: _55  and  _57
REMARK   23  A    between atoms: _57  and  _58
REMARK   24  A    between atoms: _57  and  _60
REMARK   25  A    between atoms: _62  and  _64
REMARK   26  A    between atoms: _64  and  _65
REMARK   27  A    between atoms: _64  and  _67
REMARK   28  A    between atoms: _67  and  _68
REMARK   29  A    between atoms: _68  and  _69
REMARK   30  A    between atoms: _74  and  _76
REMARK   31  A    between atoms: _76  and  _77
REMARK   32  A    between atoms: _80  and  _82
REMARK   33  A    between atoms: _82  and  _83
REMARK   34  A    between atoms: _86  and  _88
REMARK   35  A    between atoms: _88  and  _89
REMARK   36  A    between atoms: _88  and  _91
REMARK   37  A    between atoms: _91  and  _92
REMARK   38  A    between atoms: _95  and  _97
REMARK   39  A    between atoms: _97  and  _98
REMARK   40  A    between atoms: _97  and  _100
REMARK   41  A    between atoms: _100  and  _101
REMARK   42  A    between atoms: _101  and  _102
REMARK   43  A    between atoms: _102  and  _103
REMARK   44  A    between atoms: _103  and  _104
REMARK   45  A    between atoms: _108  and  _110
REMARK   46  A    between atoms: _110  and  _111
REMARK   47  A    between atoms: _110  and  _113
REMARK   48  A    between atoms: _113  and  _114
REMARK   49  A    between atoms: _114  and  _115
REMARK   50  A    between atoms: _120  and  _122
REMARK   51  A    between atoms: _122  and  _123
REMARK   52  A    between atoms: _122  and  _125
REMARK   53  A    between atoms: _125  and  _126
REMARK   54  A    between atoms: _129  and  _131
REMARK   55  A    between atoms: _131  and  _132
REMARK   56  A    between atoms: _131  and  _134
REMARK   57  A    between atoms: _134  and  _135
REMARK   58  A    between atoms: _138  and  _140
REMARK   59  A    between atoms: _140  and  _141
REMARK   60  A    between atoms: _140  and  _143
REMARK   61  A    between atoms: _143  and  _144
REMARK   62  A    between atoms: _154  and  _156
REMARK   63  A    between atoms: _156  and  _157
REMARK   64  A    between atoms: _156  and  _159
REMARK   65  A    between atoms: _159  and  _160
REMARK   66  A    between atoms: _165  and  _167
REMARK   67  A    between atoms: _167  and  _168
REMARK   68  A    between atoms: _167  and  _170
REMARK   69  A    between atoms: _170  and  _171
REMARK   70  A    between atoms: _171  and  _172
REMARK   71  A    between atoms: _175  and  _177
REMARK   72  A    between atoms: _177  and  _178
REMARK   73  A    between atoms: _177  and  _180
REMARK   74  A    between atoms: _180  and  _181
REMARK   75  A    between atoms: _184  and  _186
REMARK   76  A    between atoms: _186  and  _187
REMARK   77  A    between atoms: _186  and  _189
REMARK   78  A    between atoms: _189  and  _190
REMARK   79  A    between atoms: _193  and  _195
REMARK   80  A    between atoms: _195  and  _196
REMARK   81  A    between atoms: _195  and  _198
REMARK   82  A    between atoms: _198  and  _199
REMARK   83  A    between atoms: _202  and  _204
REMARK   84  A    between atoms: _204  and  _205
REMARK   85  A    between atoms: _208  and  _210
REMARK   86  A    between atoms: _210  and  _211
REMARK   87  A    between atoms: _210  and  _213
REMARK   88  A    between atoms: _213  and  _214
REMARK   89  A    between atoms: _216  and  _218
REMARK   90  A    between atoms: _218  and  _219
REMARK   91  A    between atoms: _218  and  _221
REMARK   92  A    between atoms: _221  and  _222
REMARK   93  A    between atoms: _228  and  _230
REMARK   94  A    between atoms: _230  and  _231
REMARK   95  A    between atoms: _230  and  _233
REMARK   96  A    between atoms: _233  and  _234
REMARK   97  A    between atoms: _236  and  _238
REMARK   98  A    between atoms: _238  and  _239
REMARK   99  A    between atoms: _238  and  _241
REMARK  100  A    between atoms: _241  and  _242
REMARK  101  A    between atoms: _242  and  _243
REMARK  102  A    between atoms: _243  and  _244
REMARK  103  A    between atoms: _253  and  _255
REMARK  104  A    between atoms: _255  and  _256
REMARK  105  A    between atoms: _255  and  _258
REMARK  106  A    between atoms: _258  and  _259
REMARK  107  A    between atoms: _261  and  _263
REMARK  108  A    between atoms: _263  and  _264
REMARK  109  A    between atoms: _263  and  _266
REMARK  110  A    between atoms: _266  and  _267
REMARK  111  A    between atoms: _270  and  _272
REMARK  112  A    between atoms: _272  and  _273
REMARK  113  A    between atoms: _272  and  _275
REMARK  114  A    between atoms: _275  and  _276
REMARK  115  A    between atoms: _279  and  _281
REMARK  116  A    between atoms: _281  and  _282
REMARK  117  A    between atoms: _281  and  _284
REMARK  118  A    between atoms: _284  and  _285
REMARK  119  A    between atoms: _288  and  _290
REMARK  120  A    between atoms: _290  and  _291
REMARK  121  A    between atoms: _294  and  _296
REMARK  122  A    between atoms: _296  and  _297
REMARK  123  A    between atoms: _296  and  _299
REMARK  124  A    between atoms: _299  and  _300
REMARK  125  A    between atoms: _303  and  _305
REMARK  126  A    between atoms: _305  and  _306
REMARK  127  A    between atoms: _308  and  _310
REMARK  128  A    between atoms: _310  and  _311
REMARK  129  A    between atoms: _310  and  _313
REMARK  130  A    between atoms: _313  and  _314
REMARK  131  A    between atoms: _317  and  _319
REMARK  132  A    between atoms: _319  and  _320
REMARK  133  A    between atoms: _319  and  _322
REMARK  134  A    between atoms: _325  and  _327
REMARK  135  A    between atoms: _327  and  _328
REMARK  136  A    between atoms: _327  and  _330
REMARK  137  A    between atoms: _330  and  _331
REMARK  138  A    between atoms: _336  and  _338
REMARK  139  A    between atoms: _338  and  _339
REMARK  140  A    between atoms: _338  and  _341
REMARK  141  A    between atoms: _341  and  _342
REMARK  142  A    between atoms: _342  and  _343
REMARK  143  A    between atoms: _343  and  _344
REMARK  144  A    between atoms: _353  and  _355
REMARK  145  A    between atoms: _355  and  _356
REMARK  146  A    between atoms: _359  and  _361
REMARK  147  A    between atoms: _361  and  _362
REMARK  148  A    between atoms: _361  and  _364
REMARK  149  A    between atoms: _364  and  _365
REMARK  150  A    between atoms: _370  and  _372
REMARK  151  A    between atoms: _372  and  _373
REMARK  152  A    between atoms: _376  and  _378
REMARK  153  A    between atoms: _378  and  _379
REMARK  154  A    between atoms: _381  and  _383
REMARK  155  A    between atoms: _383  and  _384
REMARK  156  A    between atoms: _383  and  _386
REMARK  157  A    between atoms: _389  and  _391
REMARK  158  A    between atoms: _391  and  _392
REMARK  159  A    between atoms: _394  and  _396
REMARK  160  A    between atoms: _396  and  _397
REMARK  161  A    between atoms: _400  and  _402
REMARK  162  A    between atoms: _402  and  _403
REMARK  163  A    between atoms: _402  and  _405
REMARK  164  A    between atoms: _405  and  _406
REMARK  165  A    between atoms: _409  and  _411
REMARK  166  A    between atoms: _411  and  _412
REMARK  167  A    between atoms: _411  and  _414
REMARK  168  A    between atoms: _414  and  _415
REMARK  169  A    between atoms: _421  and  _423
REMARK  170  A    between atoms: _423  and  _424
REMARK  171  A    between atoms: _423  and  _426
REMARK  172  A    between atoms: _426  and  _427
REMARK  173  A    between atoms: _430  and  _432
REMARK  174  A    between atoms: _432  and  _433
REMARK  175  A    between atoms: _432  and  _435
REMARK  176  A    between atoms: _435  and  _436
REMARK  177  A    between atoms: _436  and  _437
REMARK  178  A    between atoms: _437  and  _438
REMARK  179  A    between atoms: _447  and  _449
REMARK  180  A    between atoms: _449  and  _450
REMARK  181  A    between atoms: _449  and  _452
REMARK  182  A    between atoms: _455  and  _457
REMARK  183  A    between atoms: _457  and  _458
REMARK  184  A    between atoms: _457  and  _460
REMARK  185  A    between atoms: _460  and  _461
REMARK  186  A    between atoms: _464  and  _466
REMARK  187  A    between atoms: _466  and  _467
REMARK  188  A    between atoms: _466  and  _469
REMARK  189  A    between atoms: _469  and  _470
REMARK  190  A    between atoms: _470  and  _471
REMARK  191  A    between atoms: _471  and  _472
REMARK  192  A    between atoms: _481  and  _483
REMARK  193  A    between atoms: _483  and  _484
REMARK  194  A    between atoms: _483  and  _486
REMARK  195  A    between atoms: _486  and  _487
REMARK  196  A    between atoms: _490  and  _492
REMARK  197  A    between atoms: _492  and  _493
REMARK  198  A    between atoms: _495  and  _497
REMARK  199  A    between atoms: _497  and  _498
REMARK  200  A    between atoms: _497  and  _500
REMARK  201  A    between atoms: _500  and  _501
REMARK  202  A    between atoms: _504  and  _506
REMARK  203  A    between atoms: _506  and  _507
REMARK  204  A    between atoms: _506  and  _509
REMARK  205  A    between atoms: _509  and  _510
REMARK  206  A    between atoms: _510  and  _511
REMARK  207  A    between atoms: _511  and  _512
REMARK  208  A    between atoms: _512  and  _513
REMARK  209  A    between atoms: _517  and  _519
REMARK  210  A    between atoms: _519  and  _520
REMARK  211  A    between atoms: _519  and  _522
REMARK  212  A    between atoms: _524  and  _526
REMARK  213  A    between atoms: _526  and  _527
REMARK  214  A    between atoms: _526  and  _529
REMARK  215  A    between atoms: _529  and  _530
REMARK  216  A    between atoms: _533  and  _535
REMARK  217  A    between atoms: _535  and  _536
REMARK  218  A    between atoms: _535  and  _538
REMARK  219  A    between atoms: _538  and  _539
REMARK  220  A    between atoms: _539  and  _540
REMARK  221  A    between atoms: _543  and  _545
REMARK  222  A    between atoms: _545  and  _546
REMARK  223  A    between atoms: _545  and  _548
REMARK  224  A    between atoms: _548  and  _549
REMARK  225  A    between atoms: _554  and  _556
REMARK  226  A    between atoms: _556  and  _557
REMARK  227  A    between atoms: _556  and  _559
REMARK  228  A    between atoms: _559  and  _560
REMARK  229  A    between atoms: _563  and  _565
REMARK  230  A    between atoms: _565  and  _566
REMARK  231  A    between atoms: _565  and  _568
REMARK  232  A    between atoms: _568  and  _569
REMARK  233  A    between atoms: _575  and  _577
REMARK  234  A    between atoms: _577  and  _578
REMARK  235  A    between atoms: _577  and  _580
REMARK  236  A    between atoms: _580  and  _581
REMARK  237  A    between atoms: _587  and  _589
REMARK  238  A    between atoms: _589  and  _590
REMARK  239  A    between atoms: _589  and  _592
REMARK  240  A    between atoms: _592  and  _593
REMARK  241  A    between atoms: _596  and  _598
REMARK  242  A    between atoms: _598  and  _599
REMARK  243  A    between atoms: _598  and  _601
REMARK  244  A    between atoms: _601  and  _602
REMARK  245  A    between atoms: _605  and  _607
REMARK  246  A    between atoms: _607  and  _608
REMARK  247  A    between atoms: _607  and  _610
REMARK  248  A    between atoms: _610  and  _611
REMARK                            x       y       z     vdW  Elec       q    Type
REMARK                         _______ _______ _______ _____ _____    ______ ____
ROOT
ATOM      1  O   HOH     1      51.729  53.050  29.976  0.00  0.00    +0.000 OA
ENDROOT
TORSDOF 0
REMARK  Name = ../refined-set-2016/4pp3/4pp3_pocket.pdb
REMARK  248 active torsions:
REMARK  status: ('A' for Active; 'I' for Inactive)
REMARK    1  A    between atoms: _1  and  _3
REMARK    2  A    between atoms: _3  and  _4
REMARK    3  A    between atoms: _3  and  _6
REMARK    4  A    between atoms: _6  and  _7
REMARK    5  A    between atoms: _7  and  _8
REMARK    6  A    between atoms: _12  and  _13
REMARK    7  A    between atoms: _18  and  _20
REMARK    8  A    between atoms: _20  and  _21
REMARK    9  A    between atoms: _20  and  _23
REMARK   10  A    between atoms: _26  and  _28
REMARK   11  A    between atoms: _28  and  _29
REMARK   12  A    between atoms: _28  and  _31
REMARK   13  A    between atoms: _31  and  _32
REMARK   14  A    between atoms: _35  and  _37
REMARK   15  A    between atoms: _37  and  _38
REMARK   16  A    between atoms: _37  and  _40
REMARK   17  A    between atoms: _40  and  _41
REMARK   18  A    between atoms: _46  and  _48
REMARK   19  A    between atoms: _48  and  _49
REMARK   20  A    between atoms: _48  and  _51
REMARK   21  A    between atoms: _51  and  _52
REMARK   22  A    between atoms: _55  and  _57
REMARK   23  A    between atoms: _57  and  _58
REMARK   24  A    between atoms: _57  and  _60
REMARK   25  A    between atoms: _62  and  _64
REMARK   26  A    between atoms: _64  and  _65
REMARK   27  A    between atoms: _64  and  _67
REMARK   28  A    between atoms: _67  and  _68
REMARK   29  A    between atoms: _68  and  _69
REMARK   30  A    between atoms: _74  and  _76
REMARK   31  A    between atoms: _76  and  _77
REMARK   32  A    between atoms: _80  and  _82
REMARK   33  A    between atoms: _82  and  _83
REMARK   34  A    between atoms: _86  and  _88
REMARK   35  A    between atoms: _88  and  _89
REMARK   36  A    between atoms: _88  and  _91
REMARK   37  A    between atoms: _91  and  _92
REMARK   38  A    between atoms: _95  and  _97
REMARK   39  A    between atoms: _97  and  _98
REMARK   40  A    between atoms: _97  and  _100
REMARK   41  A    between atoms: _100  and  _101
REMARK   42  A    between atoms: _101  and  _102
REMARK   43  A    between atoms: _102  and  _103
REMARK   44  A    between atoms: _103  and  _104
REMARK   45  A    between atoms: _108  and  _110
REMARK   46  A    between atoms: _110  and  _111
REMARK   47  A    between atoms: _110  and  _113
REMARK   48  A    between atoms: _113  and  _114
REMARK   49  A    between atoms: _114  and  _115
REMARK   50  A    between atoms: _120  and  _122
REMARK   51  A    between atoms: _122  and  _123
REMARK   52  A    between atoms: _122  and  _125
REMARK   53  A    between atoms: _125  and  _126
REMARK   54  A    between atoms: _129  and  _131
REMARK   55  A    between atoms: _131  and  _132
REMARK   56  A    between atoms: _131  and  _134
REMARK   57  A    between atoms: _134  and  _135
REMARK   58  A    between atoms: _138  and  _140
REMARK   59  A    between atoms: _140  and  _141
REMARK   60  A    between atoms: _140  and  _143
REMARK   61  A    between atoms: _143  and  _144
REMARK   62  A    between atoms: _154  and  _156
REMARK   63  A    between atoms: _156  and  _157
REMARK   64  A    between atoms: _156  and  _159
REMARK   65  A    between atoms: _159  and  _160
REMARK   66  A    between atoms: _165  and  _167
REMARK   67  A    between atoms: _167  and  _168
REMARK   68  A    between atoms: _167  and  _170
REMARK   69  A    between atoms: _170  and  _171
REMARK   70  A    between atoms: _171  and  _172
REMARK   71  A    between atoms: _175  and  _177
REMARK   72  A    between atoms: _177  and  _178
REMARK   73  A    between atoms: _177  and  _180
REMARK   74  A    between atoms: _180  and  _181
REMARK   75  A    between atoms: _184  and  _186
REMARK   76  A    between atoms: _186  and  _187
REMARK   77  A    between atoms: _186  and  _189
REMARK   78  A    between atoms: _189  and  _190
REMARK   79  A    between atoms: _193  and  _195
REMARK   80  A    between atoms: _195  and  _196
REMARK   81  A    between atoms: _195  and  _198
REMARK   82  A    between atoms: _198  and  _199
REMARK   83  A    between atoms: _202  and  _204
REMARK   84  A    between atoms: _204  and  _205
REMARK   85  A    between atoms: _208  and  _210
REMARK   86  A    between atoms: _210  and  _211
REMARK   87  A    between atoms: _210  and  _213
REMARK   88  A    between atoms: _213  and  _214
REMARK   89  A    between atoms: _216  and  _218
REMARK   90  A    between atoms: _218  and  _219
REMARK   91  A    between atoms: _218  and  _221
REMARK   92  A    between atoms: _221  and  _222
REMARK   93  A    between atoms: _228  and  _230
REMARK   94  A    between atoms: _230  and  _231
REMARK   95  A    between atoms: _230  and  _233
REMARK   96  A    between atoms: _233  and  _234
REMARK   97  A    between atoms: _236  and  _238
REMARK   98  A    between atoms: _238  and  _239
REMARK   99  A    between atoms: _238  and  _241
REMARK  100  A    between atoms: _241  and  _242
REMARK  101  A    between atoms: _242  and  _243
REMARK  102  A    between atoms: _243  and  _244
REMARK  103  A    between atoms: _253  and  _255
REMARK  104  A    between atoms: _255  and  _256
REMARK  105  A    between atoms: _255  and  _258
REMARK  106  A    between atoms: _258  and  _259
REMARK  107  A    between atoms: _261  and  _263
REMARK  108  A    between atoms: _263  and  _264
REMARK  109  A    between atoms: _263  and  _266
REMARK  110  A    between atoms: _266  and  _267
REMARK  111  A    between atoms: _270  and  _272
REMARK  112  A    between atoms: _272  and  _273
REMARK  113  A    between atoms: _272  and  _275
REMARK  114  A    between atoms: _275  and  _276
REMARK  115  A    between atoms: _279  and  _281
REMARK  116  A    between atoms: _281  and  _282
REMARK  117  A    between atoms: _281  and  _284
REMARK  118  A    between atoms: _284  and  _285
REMARK  119  A    between atoms: _288  and  _290
REMARK  120  A    between atoms: _290  and  _291
REMARK  121  A    between atoms: _294  and  _296
REMARK  122  A    between atoms: _296  and  _297
REMARK  123  A    between atoms: _296  and  _299
REMARK  124  A    between atoms: _299  and  _300
REMARK  125  A    between atoms: _303  and  _305
REMARK  126  A    between atoms: _305  and  _306
REMARK  127  A    between atoms: _308  and  _310
REMARK  128  A    between atoms: _310  and  _311
REMARK  129  A    between atoms: _310  and  _313
REMARK  130  A    between atoms: _313  and  _314
REMARK  131  A    between atoms: _317  and  _319
REMARK  132  A    between atoms: _319  and  _320
REMARK  133  A    between atoms: _319  and  _322
REMARK  134  A    between atoms: _325  and  _327
REMARK  135  A    between atoms: _327  and  _328
REMARK  136  A    between atoms: _327  and  _330
REMARK  137  A    between atoms: _330  and  _331
REMARK  138  A    between atoms: _336  and  _338
REMARK  139  A    between atoms: _338  and  _339
REMARK  140  A    between atoms: _338  and  _341
REMARK  141  A    between atoms: _341  and  _342
REMARK  142  A    between atoms: _342  and  _343
REMARK  143  A    between atoms: _343  and  _344
REMARK  144  A    between atoms: _353  and  _355
REMARK  145  A    between atoms: _355  and  _356
REMARK  146  A    between atoms: _359  and  _361
REMARK  147  A    between atoms: _361  and  _362
REMARK  148  A    between atoms: _361  and  _364
REMARK  149  A    between atoms: _364  and  _365
REMARK  150  A    between atoms: _370  and  _372
REMARK  151  A    between atoms: _372  and  _373
REMARK  152  A    between atoms: _376  and  _378
REMARK  153  A    between atoms: _378  and  _379
REMARK  154  A    between atoms: _381  and  _383
REMARK  155  A    between atoms: _383  and  _384
REMARK  156  A    between atoms: _383  and  _386
REMARK  157  A    between atoms: _389  and  _391
REMARK  158  A    between atoms: _391  and  _392
REMARK  159  A    between atoms: _394  and  _396
REMARK  160  A    between atoms: _396  and  _397
REMARK  161  A    between atoms: _400  and  _402
REMARK  162  A    between atoms: _402  and  _403
REMARK  163  A    between atoms: _402  and  _405
REMARK  164  A    between atoms: _405  and  _406
REMARK  165  A    between atoms: _409  and  _411
REMARK  166  A    between atoms: _411  and  _412
REMARK  167  A    between atoms: _411  and  _414
REMARK  168  A    between atoms: _414  and  _415
REMARK  169  A    between atoms: _421  and  _423
REMARK  170  A    between atoms: _423  and  _424
REMARK  171  A    between atoms: _423  and  _426
REMARK  172  A    between atoms: _426  and  _427
REMARK  173  A    between atoms: _430  and  _432
REMARK  174  A    between atoms: _432  and  _433
REMARK  175  A    between atoms: _432  and  _435
REMARK  176  A    between atoms: _435  and  _436
REMARK  177  A    between atoms: _436  and  _437
REMARK  178  A    between atoms: _437  and  _438
REMARK  179  A    between atoms: _447  and  _449
REMARK  180  A    between atoms: _449  and  _450
REMARK  181  A    between atoms: _449  and  _452
REMARK  182  A    between atoms: _455  and  _457
REMARK  183  A    between atoms: _457  and  _458
REMARK  184  A    between atoms: _457  and  _460
REMARK  185  A    between atoms: _460  and  _461
REMARK  186  A    between atoms: _464  and  _466
REMARK  187  A    between atoms: _466  and  _467
REMARK  188  A    between atoms: _466  and  _469
REMARK  189  A    between atoms: _469  and  _470
REMARK  190  A    between atoms: _470  and  _471
REMARK  191  A    between atoms: _471  and  _472
REMARK  192  A    between atoms: _481  and  _483
REMARK  193  A    between atoms: _483  and  _484
REMARK  194  A    between atoms: _483  and  _486
REMARK  195  A    between atoms: _486  and  _487
REMARK  196  A    between atoms: _490  and  _492
REMARK  197  A    between atoms: _492  and  _493
REMARK  198  A    between atoms: _495  and  _497
REMARK  199  A    between atoms: _497  and  _498
REMARK  200  A    between atoms: _497  and  _500
REMARK  201  A    between atoms: _500  and  _501
REMARK  202  A    between atoms: _504  and  _506
REMARK  203  A    between atoms: _506  and  _507
REMARK  204  A    between atoms: _506  and  _509
REMARK  205  A    between atoms: _509  and  _510
REMARK  206  A    between atoms: _510  and  _511
REMARK  207  A    between atoms: _511  and  _512
REMARK  208  A    between atoms: _512  and  _513
REMARK  209  A    between atoms: _517  and  _519
REMARK  210  A    between atoms: _519  and  _520
REMARK  211  A    between atoms: _519  and  _522
REMARK  212  A    between atoms: _524  and  _526
REMARK  213  A    between atoms: _526  and  _527
REMARK  214  A    between atoms: _526  and  _529
REMARK  215  A    between atoms: _529  and  _530
REMARK  216  A    between atoms: _533  and  _535
REMARK  217  A    between atoms: _535  and  _536
REMARK  218  A    between atoms: _535  and  _538
REMARK  219  A    between atoms: _538  and  _539
REMARK  220  A    between atoms: _539  and  _540
REMARK  221  A    between atoms: _543  and  _545
REMARK  222  A    between atoms: _545  and  _546
REMARK  223  A    between atoms: _545  and  _548
REMARK  224  A    between atoms: _548  and  _549
REMARK  225  A    between atoms: _554  and  _556
REMARK  226  A    between atoms: _556  and  _557
REMARK  227  A    between atoms: _556  and  _559
REMARK  228  A    between atoms: _559  and  _560
REMARK  229  A    between atoms: _563  and  _565
REMARK  230  A    between atoms: _565  and  _566
REMARK  231  A    between atoms: _565  and  _568
REMARK  232  A    between atoms: _568  and  _569
REMARK  233  A    between atoms: _575  and  _577
REMARK  234  A    between atoms: _577  and  _578
REMARK  235  A    between atoms: _577  and  _580
REMARK  236  A    between atoms: _580  and  _581
REMARK  237  A    between atoms: _587  and  _589
REMARK  238  A    between atoms: _589  and  _590
REMARK  239  A    between atoms: _589  and  _592
REMARK  240  A    between atoms: _592  and  _593
REMARK  241  A    between atoms: _596  and  _598
REMARK  242  A    between atoms: _598  and  _599
REMARK  243  A    between atoms: _598  and  _601
REMARK  244  A    between atoms: _601  and  _602
REMARK  245  A    between atoms: _605  and  _607
REMARK  246  A    between atoms: _607  and  _608
REMARK  247  A    between atoms: _607  and  _610
REMARK  248  A    between atoms: _610  and  _611
REMARK                            x       y       z     vdW  Elec       q    Type
REMARK                         _______ _______ _______ _____ _____    ______ ____
ROOT
ATOM      1  O   HOH     1      54.530  49.633  26.212  0.00  0.00    +0.000 OA
ENDROOT
TORSDOF 0
REMARK  Name = ../refined-set-2016/4pp3/4pp3_pocket.pdb
REMARK  248 active torsions:
REMARK  status: ('A' for Active; 'I' for Inactive)
REMARK    1  A    between atoms: _1  and  _3
REMARK    2  A    between atoms: _3  and  _4
REMARK    3  A    between atoms: _3  and  _6
REMARK    4  A    between atoms: _6  and  _7
REMARK    5  A    between atoms: _7  and  _8
REMARK    6  A    between atoms: _12  and  _13
REMARK    7  A    between atoms: _18  and  _20
REMARK    8  A    between atoms: _20  and  _21
REMARK    9  A    between atoms: _20  and  _23
REMARK   10  A    between atoms: _26  and  _28
REMARK   11  A    between atoms: _28  and  _29
REMARK   12  A    between atoms: _28  and  _31
REMARK   13  A    between atoms: _31  and  _32
REMARK   14  A    between atoms: _35  and  _37
REMARK   15  A    between atoms: _37  and  _38
REMARK   16  A    between atoms: _37  and  _40
REMARK   17  A    between atoms: _40  and  _41
REMARK   18  A    between atoms: _46  and  _48
REMARK   19  A    between atoms: _48  and  _49
REMARK   20  A    between atoms: _48  and  _51
REMARK   21  A    between atoms: _51  and  _52
REMARK   22  A    between atoms: _55  and  _57
REMARK   23  A    between atoms: _57  and  _58
REMARK   24  A    between atoms: _57  and  _60
REMARK   25  A    between atoms: _62  and  _64
REMARK   26  A    between atoms: _64  and  _65
REMARK   27  A    between atoms: _64  and  _67
REMARK   28  A    between atoms: _67  and  _68
REMARK   29  A    between atoms: _68  and  _69
REMARK   30  A    between atoms: _74  and  _76
REMARK   31  A    between atoms: _76  and  _77
REMARK   32  A    between atoms: _80  and  _82
REMARK   33  A    between atoms: _82  and  _83
REMARK   34  A    between atoms: _86  and  _88
REMARK   35  A    between atoms: _88  and  _89
REMARK   36  A    between atoms: _88  and  _91
REMARK   37  A    between atoms: _91  and  _92
REMARK   38  A    between atoms: _95  and  _97
REMARK   39  A    between atoms: _97  and  _98
REMARK   40  A    between atoms: _97  and  _100
REMARK   41  A    between atoms: _100  and  _101
REMARK   42  A    between atoms: _101  and  _102
REMARK   43  A    between atoms: _102  and  _103
REMARK   44  A    between atoms: _103  and  _104
REMARK   45  A    between atoms: _108  and  _110
REMARK   46  A    between atoms: _110  and  _111
REMARK   47  A    between atoms: _110  and  _113
REMARK   48  A    between atoms: _113  and  _114
REMARK   49  A    between atoms: _114  and  _115
REMARK   50  A    between atoms: _120  and  _122
REMARK   51  A    between atoms: _122  and  _123
REMARK   52  A    between atoms: _122  and  _125
REMARK   53  A    between atoms: _125  and  _126
REMARK   54  A    between atoms: _129  and  _131
REMARK   55  A    between atoms: _131  and  _132
REMARK   56  A    between atoms: _131  and  _134
REMARK   57  A    between atoms: _134  and  _135
REMARK   58  A    between atoms: _138  and  _140
REMARK   59  A    between atoms: _140  and  _141
REMARK   60  A    between atoms: _140  and  _143
REMARK   61  A    between atoms: _143  and  _144
REMARK   62  A    between atoms: _154  and  _156
REMARK   63  A    between atoms: _156  and  _157
REMARK   64  A    between atoms: _156  and  _159
REMARK   65  A    between atoms: _159  and  _160
REMARK   66  A    between atoms: _165  and  _167
REMARK   67  A    between atoms: _167  and  _168
REMARK   68  A    between atoms: _167  and  _170
REMARK   69  A    between atoms: _170  and  _171
REMARK   70  A    between atoms: _171  and  _172
REMARK   71  A    between atoms: _175  and  _177
REMARK   72  A    between atoms: _177  and  _178
REMARK   73  A    between atoms: _177  and  _180
REMARK   74  A    between atoms: _180  and  _181
REMARK   75  A    between atoms: _184  and  _186
REMARK   76  A    between atoms: _186  and  _187
REMARK   77  A    between atoms: _186  and  _189
REMARK   78  A    between atoms: _189  and  _190
REMARK   79  A    between atoms: _193  and  _195
REMARK   80  A    between atoms: _195  and  _196
REMARK   81  A    between atoms: _195  and  _198
REMARK   82  A    between atoms: _198  and  _199
REMARK   83  A    between atoms: _202  and  _204
REMARK   84  A    between atoms: _204  and  _205
REMARK   85  A    between atoms: _208  and  _210
REMARK   86  A    between atoms: _210  and  _211
REMARK   87  A    between atoms: _210  and  _213
REMARK   88  A    between atoms: _213  and  _214
REMARK   89  A    between atoms: _216  and  _218
REMARK   90  A    between atoms: _218  and  _219
REMARK   91  A    between atoms: _218  and  _221
REMARK   92  A    between atoms: _221  and  _222
REMARK   93  A    between atoms: _228  and  _230
REMARK   94  A    between atoms: _230  and  _231
REMARK   95  A    between atoms: _230  and  _233
REMARK   96  A    between atoms: _233  and  _234
REMARK   97  A    between atoms: _236  and  _238
REMARK   98  A    between atoms: _238  and  _239
REMARK   99  A    between atoms: _238  and  _241
REMARK  100  A    between atoms: _241  and  _242
REMARK  101  A    between atoms: _242  and  _243
REMARK  102  A    between atoms: _243  and  _244
REMARK  103  A    between atoms: _253  and  _255
REMARK  104  A    between atoms: _255  and  _256
REMARK  105  A    between atoms: _255  and  _258
REMARK  106  A    between atoms: _258  and  _259
REMARK  107  A    between atoms: _261  and  _263
REMARK  108  A    between atoms: _263  and  _264
REMARK  109  A    between atoms: _263  and  _266
REMARK  110  A    between atoms: _266  and  _267
REMARK  111  A    between atoms: _270  and  _272
REMARK  112  A    between atoms: _272  and  _273
REMARK  113  A    between atoms: _272  and  _275
REMARK  114  A    between atoms: _275  and  _276
REMARK  115  A    between atoms: _279  and  _281
REMARK  116  A    between atoms: _281  and  _282
REMARK  117  A    between atoms: _281  and  _284
REMARK  118  A    between atoms: _284  and  _285
REMARK  119  A    between atoms: _288  and  _290
REMARK  120  A    between atoms: _290  and  _291
REMARK  121  A    between atoms: _294  and  _296
REMARK  122  A    between atoms: _296  and  _297
REMARK  123  A    between atoms: _296  and  _299
REMARK  124  A    between atoms: _299  and  _300
REMARK  125  A    between atoms: _303  and  _305
REMARK  126  A    between atoms: _305  and  _306
REMARK  127  A    between atoms: _308  and  _310
REMARK  128  A    between atoms: _310  and  _311
REMARK  129  A    between atoms: _310  and  _313
REMARK  130  A    between atoms: _313  and  _314
REMARK  131  A    between atoms: _317  and  _319
REMARK  132  A    between atoms: _319  and  _320
REMARK  133  A    between atoms: _319  and  _322
REMARK  134  A    between atoms: _325  and  _327
REMARK  135  A    between atoms: _327  and  _328
REMARK  136  A    between atoms: _327  and  _330
REMARK  137  A    between atoms: _330  and  _331
REMARK  138  A    between atoms: _336  and  _338
REMARK  139  A    between atoms: _338  and  _339
REMARK  140  A    between atoms: _338  and  _341
REMARK  141  A    between atoms: _341  and  _342
REMARK  142  A    between atoms: _342  and  _343
REMARK  143  A    between atoms: _343  and  _344
REMARK  144  A    between atoms: _353  and  _355
REMARK  145  A    between atoms: _355  and  _356
REMARK  146  A    between atoms: _359  and  _361
REMARK  147  A    between atoms: _361  and  _362
REMARK  148  A    between atoms: _361  and  _364
REMARK  149  A    between atoms: _364  and  _365
REMARK  150  A    between atoms: _370  and  _372
REMARK  151  A    between atoms: _372  and  _373
REMARK  152  A    between atoms: _376  and  _378
REMARK  153  A    between atoms: _378  and  _379
REMARK  154  A    between atoms: _381  and  _383
REMARK  155  A    between atoms: _383  and  _384
REMARK  156  A    between atoms: _383  and  _386
REMARK  157  A    between atoms: _389  and  _391
REMARK  158  A    between atoms: _391  and  _392
REMARK  159  A    between atoms: _394  and  _396
REMARK  160  A    between atoms: _396  and  _397
REMARK  161  A    between atoms: _400  and  _402
REMARK  162  A    between atoms: _402  and  _403
REMARK  163  A    between atoms: _402  and  _405
REMARK  164  A    between atoms: _405  and  _406
REMARK  165  A    between atoms: _409  and  _411
REMARK  166  A    between atoms: _411  and  _412
REMARK  167  A    between atoms: _411  and  _414
REMARK  168  A    between atoms: _414  and  _415
REMARK  169  A    between atoms: _421  and  _423
REMARK  170  A    between atoms: _423  and  _424
REMARK  171  A    between atoms: _423  and  _426
REMARK  172  A    between atoms: _426  and  _427
REMARK  173  A    between atoms: _430  and  _432
REMARK  174  A    between atoms: _432  and  _433
REMARK  175  A    between atoms: _432  and  _435
REMARK  176  A    between atoms: _435  and  _436
REMARK  177  A    between atoms: _436  and  _437
REMARK  178  A    between atoms: _437  and  _438
REMARK  179  A    between atoms: _447  and  _449
REMARK  180  A    between atoms: _449  and  _450
REMARK  181  A    between atoms: _449  and  _452
REMARK  182  A    between atoms: _455  and  _457
REMARK  183  A    between atoms: _457  and  _458
REMARK  184  A    between atoms: _457  and  _460
REMARK  185  A    between atoms: _460  and  _461
REMARK  186  A    between atoms: _464  and  _466
REMARK  187  A    between atoms: _466  and  _467
REMARK  188  A    between atoms: _466  and  _469
REMARK  189  A    between atoms: _469  and  _470
REMARK  190  A    between atoms: _470  and  _471
REMARK  191  A    between atoms: _471  and  _472
REMARK  192  A    between atoms: _481  and  _483
REMARK  193  A    between atoms: _483  and  _484
REMARK  194  A    between atoms: _483  and  _486
REMARK  195  A    between atoms: _486  and  _487
REMARK  196  A    between atoms: _490  and  _492
REMARK  197  A    between atoms: _492  and  _493
REMARK  198  A    between atoms: _495  and  _497
REMARK  199  A    between atoms: _497  and  _498
REMARK  200  A    between atoms: _497  and  _500
REMARK  201  A    between atoms: _500  and  _501
REMARK  202  A    between atoms: _504  and  _506
REMARK  203  A    between atoms: _506  and  _507
REMARK  204  A    between atoms: _506  and  _509
REMARK  205  A    between atoms: _509  and  _510
REMARK  206  A    between atoms: _510  and  _511
REMARK  207  A    between atoms: _511  and  _512
REMARK  208  A    between atoms: _512  and  _513
REMARK  209  A    between atoms: _517  and  _519
REMARK  210  A    between atoms: _519  and  _520
REMARK  211  A    between atoms: _519  and  _522
REMARK  212  A    between atoms: _524  and  _526
REMARK  213  A    between atoms: _526  and  _527
REMARK  214  A    between atoms: _526  and  _529
REMARK  215  A    between atoms: _529  and  _530
REMARK  216  A    between atoms: _533  and  _535
REMARK  217  A    between atoms: _535  and  _536
REMARK  218  A    between atoms: _535  and  _538
REMARK  219  A    between atoms: _538  and  _539
REMARK  220  A    between atoms: _539  and  _540
REMARK  221  A    between atoms: _543  and  _545
REMARK  222  A    between atoms: _545  and  _546
REMARK  223  A    between atoms: _545  and  _548
REMARK  224  A    between atoms: _548  and  _549
REMARK  225  A    between atoms: _554  and  _556
REMARK  226  A    between atoms: _556  and  _557
REMARK  227  A    between atoms: _556  and  _559
REMARK  228  A    between atoms: _559  and  _560
REMARK  229  A    between atoms: _563  and  _565
REMARK  230  A    between atoms: _565  and  _566
REMARK  231  A    between atoms: _565  and  _568
REMARK  232  A    between atoms: _568  and  _569
REMARK  233  A    between atoms: _575  and  _577
REMARK  234  A    between atoms: _577  and  _578
REMARK  235  A    between atoms: _577  and  _580
REMARK  236  A    between atoms: _580  and  _581
REMARK  237  A    between atoms: _587  and  _589
REMARK  238  A    between atoms: _589  and  _590
REMARK  239  A    between atoms: _589  and  _592
REMARK  240  A    between atoms: _592  and  _593
REMARK  241  A    between atoms: _596  and  _598
REMARK  242  A    between atoms: _598  and  _599
REMARK  243  A    between atoms: _598  and  _601
REMARK  244  A    between atoms: _601  and  _602
REMARK  245  A    between atoms: _605  and  _607
REMARK  246  A    between atoms: _607  and  _608
REMARK  247  A    between atoms: _607  and  _610
REMARK  248  A    between atoms: _610  and  _611
REMARK                            x       y       z     vdW  Elec       q    Type
REMARK                         _______ _______ _______ _____ _____    ______ ____
ROOT
ATOM      1  O   HOH     1      72.184  48.990  37.281  0.00  0.00    +0.000 OA
ENDROOT
TORSDOF 0
