REMARK  Name = ../refined-set-2016/4jc1/4jc1_pocket.pdb
REMARK  101 active torsions:
REMARK  status: ('A' for Active; 'I' for Inactive)
REMARK    1  A    between atoms: _1  and  _3
REMARK    2  A    between atoms: _3  and  _4
REMARK    3  A    between atoms: _3  and  _6
REMARK    4  A    between atoms: _6  and  _7
REMARK    5  A    between atoms: _7  and  _8
REMARK    6  A    between atoms: _8  and  _9
REMARK    7  A    between atoms: _18  and  _20
REMARK    8  A    between atoms: _20  and  _21
REMARK    9  A    between atoms: _20  and  _23
REMARK   10  A    between atoms: _23  and  _24
REMARK   11  A    between atoms: _27  and  _29
REMARK   12  A    between atoms: _29  and  _30
REMARK   13  A    between atoms: _33  and  _35
REMARK   14  A    between atoms: _35  and  _36
REMARK   15  A    between atoms: _35  and  _38
REMARK   16  A    between atoms: _38  and  _39
REMARK   17  A    between atoms: _42  and  _44
REMARK   18  A    between atoms: _44  and  _45
REMARK   19  A    between atoms: _44  and  _47
REMARK   20  A    between atoms: _47  and  _48
REMARK   21  A    between atoms: _53  and  _55
REMARK   22  A    between atoms: _55  and  _56
REMARK   23  A    between atoms: _55  and  _58
REMARK   24  A    between atoms: _58  and  _59
REMARK   25  A    between atoms: _65  and  _67
REMARK   26  A    between atoms: _67  and  _68
REMARK   27  A    between atoms: _67  and  _70
REMARK   28  A    between atoms: _70  and  _71
REMARK   29  A    between atoms: _76  and  _78
REMARK   30  A    between atoms: _78  and  _79
REMARK   31  A    between atoms: _78  and  _81
REMARK   32  A    between atoms: _81  and  _82
REMARK   33  A    between atoms: _82  and  _83
REMARK   34  A    between atoms: _83  and  _84
REMARK   35  A    between atoms: _93  and  _95
REMARK   36  A    between atoms: _95  and  _96
REMARK   37  A    between atoms: _95  and  _98
REMARK   38  A    between atoms: _98  and  _99
REMARK   39  A    between atoms: _99  and  _100
REMARK   40  A    between atoms: _103  and  _105
REMARK   41  A    between atoms: _105  and  _106
REMARK   42  A    between atoms: _105  and  _108
REMARK   43  A    between atoms: _108  and  _109
REMARK   44  A    between atoms: _114  and  _116
REMARK   45  A    between atoms: _116  and  _117
REMARK   46  A    between atoms: _116  and  _119
REMARK   47  A    between atoms: _122  and  _124
REMARK   48  A    between atoms: _124  and  _125
REMARK   49  A    between atoms: _124  and  _127
REMARK   50  A    between atoms: _130  and  _132
REMARK   51  A    between atoms: _132  and  _133
REMARK   52  A    between atoms: _132  and  _135
REMARK   53  A    between atoms: _137  and  _139
REMARK   54  A    between atoms: _139  and  _140
REMARK   55  A    between atoms: _139  and  _142
REMARK   56  A    between atoms: _142  and  _143
REMARK   57  A    between atoms: _148  and  _150
REMARK   58  A    between atoms: _150  and  _151
REMARK   59  A    between atoms: _150  and  _153
REMARK   60  A    between atoms: _153  and  _154
REMARK   61  A    between atoms: _157  and  _159
REMARK   62  A    between atoms: _159  and  _160
REMARK   63  A    between atoms: _159  and  _162
REMARK   64  A    between atoms: _162  and  _163
REMARK   65  A    between atoms: _163  and  _164
REMARK   66  A    between atoms: _164  and  _165
REMARK   67  A    between atoms: _165  and  _166
REMARK   68  A    between atoms: _170  and  _172
REMARK   69  A    between atoms: _172  and  _173
REMARK   70  A    between atoms: _172  and  _175
REMARK   71  A    between atoms: _175  and  _176
REMARK   72  A    between atoms: _186  and  _188
REMARK   73  A    between atoms: _188  and  _189
REMARK   74  A    between atoms: _191  and  _193
REMARK   75  A    between atoms: _193  and  _194
REMARK   76  A    between atoms: _193  and  _196
REMARK   77  A    between atoms: _196  and  _197
REMARK   78  A    between atoms: _197  and  _198
REMARK   79  A    between atoms: _198  and  _199
REMARK   80  A    between atoms: _208  and  _210
REMARK   81  A    between atoms: _210  and  _211
REMARK   82  A    between atoms: _210  and  _213
REMARK   83  A    between atoms: _213  and  _214
REMARK   84  A    between atoms: _214  and  _215
REMARK   85  A    between atoms: _218  and  _220
REMARK   86  A    between atoms: _220  and  _221
REMARK   87  A    between atoms: _220  and  _223
REMARK   88  A    between atoms: _223  and  _224
REMARK   89  A    between atoms: _224  and  _225
REMARK   90  A    between atoms: _228  and  _230
REMARK   91  A    between atoms: _230  and  _231
REMARK   92  A    between atoms: _230  and  _233
REMARK   93  A    between atoms: _233  and  _234
REMARK   94  A    between atoms: _234  and  _235
REMARK   95  A    between atoms: _235  and  _236
REMARK   96  A    between atoms: _245  and  _247
REMARK   97  A    between atoms: _247  and  _248
REMARK   98  A    between atoms: _247  and  _250
REMARK   99  A    between atoms: _250  and  _251
REMARK  100  A    between atoms: _251  and  _252
REMARK  101  A    between atoms: _252  and  _253
REMARK                            x       y       z     vdW  Elec       q    Type
REMARK                         _______ _______ _______ _____ _____    ______ ____
ROOT
ATOM      1  C   ARG A   1      11.495  -9.979   7.299  0.00  0.00    +0.238 C 
ATOM      2  N   ILE A   2      11.924  -8.733   7.391  0.00  0.00    -0.297 N 
ATOM      3  H   ILE A   2      12.939  -8.580   7.556  0.00  0.00    +0.150 HD
ATOM      4  O   ARG A   1      10.305 -10.306   7.319  0.00  0.00    -0.274 OA
ENDROOT
BRANCH   1   5
ATOM      5  CA  ARG A   1      12.585 -11.016   7.125  0.00  0.00    +0.145 C 
BRANCH   5   6
ATOM      6  N   ARG A   1      12.166 -12.356   7.564  0.00  0.00    -0.238 NA
ATOM      7  H   ARG A   1      11.155 -12.602   7.560  0.00  0.00    +0.142 HD
ENDBRANCH   5   6
BRANCH   5   8
ATOM      8  CB  ARG A   1      12.999 -11.055   5.667  0.00  0.00    +0.030 C 
BRANCH   8   9
ATOM      9  CG  ARG A   1      11.814 -11.284   4.742  0.00  0.00    +0.045 C 
BRANCH   9  10
ATOM     10  CD  ARG A   1      12.229 -11.542   3.316  0.00  0.00    +0.174 C 
BRANCH  10  11
ATOM     11  NE  ARG A   1      12.860 -10.384   2.686  0.00  0.00    -0.265 N 
ATOM     12  HE  ARG A   1      13.900 -10.354   2.683  0.00  0.00    +0.259 HD
ATOM     13  CZ  ARG A   1      12.221  -9.363   2.115  0.00  0.00    +0.342 C 
ATOM     14  NH2 ARG A   1      10.888  -9.297   2.104  0.00  0.00    -0.292 N 
ATOM     15 HH21 ARG A   1      10.326 -10.052   2.547  0.00  0.00    +0.255 HD
ATOM     16 HH22 ARG A   1      10.411  -8.491   1.652  0.00  0.00    +0.255 HD
ATOM     17  NH1 ARG A   1      12.927  -8.384   1.557  0.00  0.00    -0.292 N 
ATOM     18 HH11 ARG A   1      13.966  -8.420   1.569  0.00  0.00    +0.255 HD
ATOM     19 HH12 ARG A   1      12.440  -7.582   1.108  0.00  0.00    +0.255 HD
ENDBRANCH  10  11
ENDBRANCH   9  10
ENDBRANCH   8   9
ENDBRANCH   5   8
ENDBRANCH   1   5
BRANCH   2  20
ATOM     20  CA  ILE A   2      11.065  -7.552   7.276  0.00  0.00    +0.148 C 
BRANCH  20  21
ATOM     21  C   ILE A   2      11.772  -6.640   6.282  0.00  0.00    +0.241 C 
ATOM     22  O   ILE A   2      12.997  -6.622   6.249  0.00  0.00    -0.273 OA
ATOM     23  N   ALA A   3      11.034  -5.892   5.467  0.00  0.00    -0.298 N 
ATOM     24  H   ALA A   3      10.003  -6.026   5.434  0.00  0.00    +0.150 HD
BRANCH  23  25
ATOM     25  CA  ALA A   3      11.667  -4.874   4.610  0.00  0.00    +0.137 C 
ATOM     26  CB  ALA A   3      11.931  -5.407   3.212  0.00  0.00    +0.030 C 
BRANCH  25  27
ATOM     27  C   ALA A   3      10.838  -3.614   4.537  0.00  0.00    +0.227 C 
ATOM     28  O   ALA A   3       9.614  -3.680   4.340  0.00  0.00    -0.286 OA
ENDBRANCH  25  27
ENDBRANCH  23  25
ENDBRANCH  20  21
BRANCH  20  29
ATOM     29  CB  ILE A   2      10.957  -6.808   8.613  0.00  0.00    +0.027 C 
ATOM     30  CG2 ILE A   2      10.161  -5.522   8.462  0.00  0.00    +0.002 C 
BRANCH  29  31
ATOM     31  CG1 ILE A   2      10.362  -7.706   9.691  0.00  0.00    +0.002 C 
ATOM     32  CD1 ILE A   2      10.421  -7.102  11.075  0.00  0.00    +0.000 C 
ENDBRANCH  29  31
ENDBRANCH  20  29
ENDBRANCH   2  20
TORSDOF 12
REMARK  Name = ../refined-set-2016/4jc1/4jc1_pocket.pdb
REMARK  101 active torsions:
REMARK  status: ('A' for Active; 'I' for Inactive)
REMARK    1  A    between atoms: _1  and  _3
REMARK    2  A    between atoms: _3  and  _4
REMARK    3  A    between atoms: _3  and  _6
REMARK    4  A    between atoms: _6  and  _7
REMARK    5  A    between atoms: _7  and  _8
REMARK    6  A    between atoms: _8  and  _9
REMARK    7  A    between atoms: _18  and  _20
REMARK    8  A    between atoms: _20  and  _21
REMARK    9  A    between atoms: _20  and  _23
REMARK   10  A    between atoms: _23  and  _24
REMARK   11  A    between atoms: _27  and  _29
REMARK   12  A    between atoms: _29  and  _30
REMARK   13  A    between atoms: _33  and  _35
REMARK   14  A    between atoms: _35  and  _36
REMARK   15  A    between atoms: _35  and  _38
REMARK   16  A    between atoms: _38  and  _39
REMARK   17  A    between atoms: _42  and  _44
REMARK   18  A    between atoms: _44  and  _45
REMARK   19  A    between atoms: _44  and  _47
REMARK   20  A    between atoms: _47  and  _48
REMARK   21  A    between atoms: _53  and  _55
REMARK   22  A    between atoms: _55  and  _56
REMARK   23  A    between atoms: _55  and  _58
REMARK   24  A    between atoms: _58  and  _59
REMARK   25  A    between atoms: _65  and  _67
REMARK   26  A    between atoms: _67  and  _68
REMARK   27  A    between atoms: _67  and  _70
REMARK   28  A    between atoms: _70  and  _71
REMARK   29  A    between atoms: _76  and  _78
REMARK   30  A    between atoms: _78  and  _79
REMARK   31  A    between atoms: _78  and  _81
REMARK   32  A    between atoms: _81  and  _82
REMARK   33  A    between atoms: _82  and  _83
REMARK   34  A    between atoms: _83  and  _84
REMARK   35  A    between atoms: _93  and  _95
REMARK   36  A    between atoms: _95  and  _96
REMARK   37  A    between atoms: _95  and  _98
REMARK   38  A    between atoms: _98  and  _99
REMARK   39  A    between atoms: _99  and  _100
REMARK   40  A    between atoms: _103  and  _105
REMARK   41  A    between atoms: _105  and  _106
REMARK   42  A    between atoms: _105  and  _108
REMARK   43  A    between atoms: _108  and  _109
REMARK   44  A    between atoms: _114  and  _116
REMARK   45  A    between atoms: _116  and  _117
REMARK   46  A    between atoms: _116  and  _119
REMARK   47  A    between atoms: _122  and  _124
REMARK   48  A    between atoms: _124  and  _125
REMARK   49  A    between atoms: _124  and  _127
REMARK   50  A    between atoms: _130  and  _132
REMARK   51  A    between atoms: _132  and  _133
REMARK   52  A    between atoms: _132  and  _135
REMARK   53  A    between atoms: _137  and  _139
REMARK   54  A    between atoms: _139  and  _140
REMARK   55  A    between atoms: _139  and  _142
REMARK   56  A    between atoms: _142  and  _143
REMARK   57  A    between atoms: _148  and  _150
REMARK   58  A    between atoms: _150  and  _151
REMARK   59  A    between atoms: _150  and  _153
REMARK   60  A    between atoms: _153  and  _154
REMARK   61  A    between atoms: _157  and  _159
REMARK   62  A    between atoms: _159  and  _160
REMARK   63  A    between atoms: _159  and  _162
REMARK   64  A    between atoms: _162  and  _163
REMARK   65  A    between atoms: _163  and  _164
REMARK   66  A    between atoms: _164  and  _165
REMARK   67  A    between atoms: _165  and  _166
REMARK   68  A    between atoms: _170  and  _172
REMARK   69  A    between atoms: _172  and  _173
REMARK   70  A    between atoms: _172  and  _175
REMARK   71  A    between atoms: _175  and  _176
REMARK   72  A    between atoms: _186  and  _188
REMARK   73  A    between atoms: _188  and  _189
REMARK   74  A    between atoms: _191  and  _193
REMARK   75  A    between atoms: _193  and  _194
REMARK   76  A    between atoms: _193  and  _196
REMARK   77  A    between atoms: _196  and  _197
REMARK   78  A    between atoms: _197  and  _198
REMARK   79  A    between atoms: _198  and  _199
REMARK   80  A    between atoms: _208  and  _210
REMARK   81  A    between atoms: _210  and  _211
REMARK   82  A    between atoms: _210  and  _213
REMARK   83  A    between atoms: _213  and  _214
REMARK   84  A    between atoms: _214  and  _215
REMARK   85  A    between atoms: _218  and  _220
REMARK   86  A    between atoms: _220  and  _221
REMARK   87  A    between atoms: _220  and  _223
REMARK   88  A    between atoms: _223  and  _224
REMARK   89  A    between atoms: _224  and  _225
REMARK   90  A    between atoms: _228  and  _230
REMARK   91  A    between atoms: _230  and  _231
REMARK   92  A    between atoms: _230  and  _233
REMARK   93  A    between atoms: _233  and  _234
REMARK   94  A    between atoms: _234  and  _235
REMARK   95  A    between atoms: _235  and  _236
REMARK   96  A    between atoms: _245  and  _247
REMARK   97  A    between atoms: _247  and  _248
REMARK   98  A    between atoms: _247  and  _250
REMARK   99  A    between atoms: _250  and  _251
REMARK  100  A    between atoms: _251  and  _252
REMARK  101  A    between atoms: _252  and  _253
REMARK                            x       y       z     vdW  Elec       q    Type
REMARK                         _______ _______ _______ _____ _____    ______ ____
ROOT
ATOM      1  CA  ASP A   1      11.691   0.247   0.948  0.00  0.00    +0.144 C 
ENDROOT
BRANCH   1   2
ATOM      2  N   ASP A   1      11.064  -0.253   2.157  0.00  0.00    -0.239 NA
ATOM      3  H   ASP A   1      10.026  -0.297   2.191  0.00  0.00    +0.142 HD
ENDBRANCH   1   2
BRANCH   1   4
ATOM      4  C   ASP A   1      11.159   1.633   0.588  0.00  0.00    +0.225 C 
ATOM      5  O   ASP A   1      10.029   1.769   0.125  0.00  0.00    -0.287 OA
ENDBRANCH   1   4
BRANCH   1   6
ATOM      6  CB  ASP A   1      11.454  -0.720  -0.201  0.00  0.00    +0.139 C 
BRANCH   6   7
ATOM      7  CG  ASP A   1      12.212  -2.013  -0.016  0.00  0.00    +0.367 C 
ATOM      8  OD2 ASP A   1      11.604  -3.088   0.159  0.00  0.00    -0.246 OA
ATOM      9  OD1 ASP A   1      13.439  -1.945  -0.003  0.00  0.00    -0.246 OA
ENDBRANCH   6   7
ENDBRANCH   1   6
TORSDOF 4
REMARK  Name = ../refined-set-2016/4jc1/4jc1_pocket.pdb
REMARK  101 active torsions:
REMARK  status: ('A' for Active; 'I' for Inactive)
REMARK    1  A    between atoms: _1  and  _3
REMARK    2  A    between atoms: _3  and  _4
REMARK    3  A    between atoms: _3  and  _6
REMARK    4  A    between atoms: _6  and  _7
REMARK    5  A    between atoms: _7  and  _8
REMARK    6  A    between atoms: _8  and  _9
REMARK    7  A    between atoms: _18  and  _20
REMARK    8  A    between atoms: _20  and  _21
REMARK    9  A    between atoms: _20  and  _23
REMARK   10  A    between atoms: _23  and  _24
REMARK   11  A    between atoms: _27  and  _29
REMARK   12  A    between atoms: _29  and  _30
REMARK   13  A    between atoms: _33  and  _35
REMARK   14  A    between atoms: _35  and  _36
REMARK   15  A    between atoms: _35  and  _38
REMARK   16  A    between atoms: _38  and  _39
REMARK   17  A    between atoms: _42  and  _44
REMARK   18  A    between atoms: _44  and  _45
REMARK   19  A    between atoms: _44  and  _47
REMARK   20  A    between atoms: _47  and  _48
REMARK   21  A    between atoms: _53  and  _55
REMARK   22  A    between atoms: _55  and  _56
REMARK   23  A    between atoms: _55  and  _58
REMARK   24  A    between atoms: _58  and  _59
REMARK   25  A    between atoms: _65  and  _67
REMARK   26  A    between atoms: _67  and  _68
REMARK   27  A    between atoms: _67  and  _70
REMARK   28  A    between atoms: _70  and  _71
REMARK   29  A    between atoms: _76  and  _78
REMARK   30  A    between atoms: _78  and  _79
REMARK   31  A    between atoms: _78  and  _81
REMARK   32  A    between atoms: _81  and  _82
REMARK   33  A    between atoms: _82  and  _83
REMARK   34  A    between atoms: _83  and  _84
REMARK   35  A    between atoms: _93  and  _95
REMARK   36  A    between atoms: _95  and  _96
REMARK   37  A    between atoms: _95  and  _98
REMARK   38  A    between atoms: _98  and  _99
REMARK   39  A    between atoms: _99  and  _100
REMARK   40  A    between atoms: _103  and  _105
REMARK   41  A    between atoms: _105  and  _106
REMARK   42  A    between atoms: _105  and  _108
REMARK   43  A    between atoms: _108  and  _109
REMARK   44  A    between atoms: _114  and  _116
REMARK   45  A    between atoms: _116  and  _117
REMARK   46  A    between atoms: _116  and  _119
REMARK   47  A    between atoms: _122  and  _124
REMARK   48  A    between atoms: _124  and  _125
REMARK   49  A    between atoms: _124  and  _127
REMARK   50  A    between atoms: _130  and  _132
REMARK   51  A    between atoms: _132  and  _133
REMARK   52  A    between atoms: _132  and  _135
REMARK   53  A    between atoms: _137  and  _139
REMARK   54  A    between atoms: _139  and  _140
REMARK   55  A    between atoms: _139  and  _142
REMARK   56  A    between atoms: _142  and  _143
REMARK   57  A    between atoms: _148  and  _150
REMARK   58  A    between atoms: _150  and  _151
REMARK   59  A    between atoms: _150  and  _153
REMARK   60  A    between atoms: _153  and  _154
REMARK   61  A    between atoms: _157  and  _159
REMARK   62  A    between atoms: _159  and  _160
REMARK   63  A    between atoms: _159  and  _162
REMARK   64  A    between atoms: _162  and  _163
REMARK   65  A    between atoms: _163  and  _164
REMARK   66  A    between atoms: _164  and  _165
REMARK   67  A    between atoms: _165  and  _166
REMARK   68  A    between atoms: _170  and  _172
REMARK   69  A    between atoms: _172  and  _173
REMARK   70  A    between atoms: _172  and  _175
REMARK   71  A    between atoms: _175  and  _176
REMARK   72  A    between atoms: _186  and  _188
REMARK   73  A    between atoms: _188  and  _189
REMARK   74  A    between atoms: _191  and  _193
REMARK   75  A    between atoms: _193  and  _194
REMARK   76  A    between atoms: _193  and  _196
REMARK   77  A    between atoms: _196  and  _197
REMARK   78  A    between atoms: _197  and  _198
REMARK   79  A    between atoms: _198  and  _199
REMARK   80  A    between atoms: _208  and  _210
REMARK   81  A    between atoms: _210  and  _211
REMARK   82  A    between atoms: _210  and  _213
REMARK   83  A    between atoms: _213  and  _214
REMARK   84  A    between atoms: _214  and  _215
REMARK   85  A    between atoms: _218  and  _220
REMARK   86  A    between atoms: _220  and  _221
REMARK   87  A    between atoms: _220  and  _223
REMARK   88  A    between atoms: _223  and  _224
REMARK   89  A    between atoms: _224  and  _225
REMARK   90  A    between atoms: _228  and  _230
REMARK   91  A    between atoms: _230  and  _231
REMARK   92  A    between atoms: _230  and  _233
REMARK   93  A    between atoms: _233  and  _234
REMARK   94  A    between atoms: _234  and  _235
REMARK   95  A    between atoms: _235  and  _236
REMARK   96  A    between atoms: _245  and  _247
REMARK   97  A    between atoms: _247  and  _248
REMARK   98  A    between atoms: _247  and  _250
REMARK   99  A    between atoms: _250  and  _251
REMARK  100  A    between atoms: _251  and  _252
REMARK  101  A    between atoms: _252  and  _253
REMARK                            x       y       z     vdW  Elec       q    Type
REMARK                         _______ _______ _______ _____ _____    ______ ____
ROOT
ATOM      1  CA  PHE A   2      15.836  -1.314   5.759  0.00  0.00    +0.153 C 
ENDROOT
BRANCH   1   3
ATOM      2  C   HIS A   1      16.556  -0.734   3.471  0.00  0.00    +0.239 C 
ATOM      3  N   PHE A   2      15.595  -0.967   4.360  0.00  0.00    -0.297 N 
ATOM      4  H   PHE A   2      14.608  -0.898   4.039  0.00  0.00    +0.150 HD
ATOM      5  O   HIS A   1      17.755  -0.731   3.754  0.00  0.00    -0.274 OA
BRANCH   2   6
ATOM      6  CA  HIS A   1      16.121  -0.413   2.074  0.00  0.00    +0.151 C 
BRANCH   6   7
ATOM      7  N   HIS A   1      16.607   0.937   1.782  0.00  0.00    -0.238 NA
ATOM      8  H   HIS A   1      17.628   1.041   1.611  0.00  0.00    +0.142 HD
ENDBRANCH   6   7
BRANCH   6   9
ATOM      9  CB  HIS A   1      16.768  -1.339   1.031  0.00  0.00    +0.074 C 
BRANCH   9  10
ATOM     10  CG  HIS A   1      16.513  -2.820   1.199  0.00  0.00    +0.082 A 
ATOM     11  CD2 HIS A   1      17.392  -3.855   1.495  0.00  0.00    +0.115 A 
ATOM     12  NE2 HIS A   1      16.698  -5.018   1.419  0.00  0.00    -0.221 NA
ATOM     13  CE1 HIS A   1      15.431  -4.746   1.090  0.00  0.00    +0.199 A 
ATOM     14  ND1 HIS A   1      15.314  -3.409   0.922  0.00  0.00    -0.227 NA
ENDBRANCH   9  10
ENDBRANCH   6   9
ENDBRANCH   2   6
ENDBRANCH   1   3
BRANCH   1  15
ATOM     15  C   PHE A   2      15.349  -2.740   5.921  0.00  0.00    +0.241 C 
ATOM     16  N   ASN A   3      16.267  -3.674   6.196  0.00  0.00    -0.298 N 
ATOM     17  H   ASN A   3      17.207  -3.380   6.529  0.00  0.00    +0.150 HD
ATOM     18  O   PHE A   2      14.155  -2.989   5.780  0.00  0.00    -0.273 OA
BRANCH  16  19
ATOM     19  CA  ASN A   3      15.976  -5.105   6.038  0.00  0.00    +0.146 C 
BRANCH  19  20
ATOM     20  C   ASN A   3      16.483  -5.957   7.199  0.00  0.00    +0.227 C 
ATOM     21  O   ASN A   3      17.566  -6.545   7.134  0.00  0.00    -0.286 OA
ENDBRANCH  19  20
BRANCH  19  22
ATOM     22  CB  ASN A   3      16.560  -5.546   4.688  0.00  0.00    +0.112 C 
BRANCH  22  23
ATOM     23  CG  ASN A   3      16.406  -7.027   4.366  0.00  0.00    +0.222 C 
ATOM     24  ND2 ASN A   3      15.329  -7.674   4.829  0.00  0.00    -0.329 N 
ATOM     25 HD21 ASN A   3      14.628  -7.169   5.407  0.00  0.00    +0.145 HD
ATOM     26 HD22 ASN A   3      15.194  -8.682   4.610  0.00  0.00    +0.145 HD
ATOM     27  OD1 ASN A   3      17.264  -7.574   3.680  0.00  0.00    -0.275 OA
ENDBRANCH  22  23
ENDBRANCH  19  22
ENDBRANCH  16  19
ENDBRANCH   1  15
BRANCH   1  28
ATOM     28  CB  PHE A   2      15.086  -0.340   6.661  0.00  0.00    +0.055 C 
BRANCH  28  29
ATOM     29  CG  PHE A   2      15.091  -0.696   8.127  0.00  0.00    -0.020 A 
ATOM     30  CD2 PHE A   2      16.143  -0.336   8.934  0.00  0.00    -0.004 A 
ATOM     31  CE2 PHE A   2      16.129  -0.636  10.276  0.00  0.00    -0.000 A 
ATOM     32  CZ  PHE A   2      15.065  -1.312  10.827  0.00  0.00    -0.000 A 
ATOM     33  CE1 PHE A   2      14.012  -1.674  10.038  0.00  0.00    -0.000 A 
ATOM     34  CD1 PHE A   2      14.026  -1.362   8.698  0.00  0.00    -0.004 A 
ENDBRANCH  28  29
ENDBRANCH   1  28
TORSDOF 12
REMARK  Name = ../refined-set-2016/4jc1/4jc1_pocket.pdb
REMARK  101 active torsions:
REMARK  status: ('A' for Active; 'I' for Inactive)
REMARK    1  A    between atoms: _1  and  _3
REMARK    2  A    between atoms: _3  and  _4
REMARK    3  A    between atoms: _3  and  _6
REMARK    4  A    between atoms: _6  and  _7
REMARK    5  A    between atoms: _7  and  _8
REMARK    6  A    between atoms: _8  and  _9
REMARK    7  A    between atoms: _18  and  _20
REMARK    8  A    between atoms: _20  and  _21
REMARK    9  A    between atoms: _20  and  _23
REMARK   10  A    between atoms: _23  and  _24
REMARK   11  A    between atoms: _27  and  _29
REMARK   12  A    between atoms: _29  and  _30
REMARK   13  A    between atoms: _33  and  _35
REMARK   14  A    between atoms: _35  and  _36
REMARK   15  A    between atoms: _35  and  _38
REMARK   16  A    between atoms: _38  and  _39
REMARK   17  A    between atoms: _42  and  _44
REMARK   18  A    between atoms: _44  and  _45
REMARK   19  A    between atoms: _44  and  _47
REMARK   20  A    between atoms: _47  and  _48
REMARK   21  A    between atoms: _53  and  _55
REMARK   22  A    between atoms: _55  and  _56
REMARK   23  A    between atoms: _55  and  _58
REMARK   24  A    between atoms: _58  and  _59
REMARK   25  A    between atoms: _65  and  _67
REMARK   26  A    between atoms: _67  and  _68
REMARK   27  A    between atoms: _67  and  _70
REMARK   28  A    between atoms: _70  and  _71
REMARK   29  A    between atoms: _76  and  _78
REMARK   30  A    between atoms: _78  and  _79
REMARK   31  A    between atoms: _78  and  _81
REMARK   32  A    between atoms: _81  and  _82
REMARK   33  A    between atoms: _82  and  _83
REMARK   34  A    between atoms: _83  and  _84
REMARK   35  A    between atoms: _93  and  _95
REMARK   36  A    between atoms: _95  and  _96
REMARK   37  A    between atoms: _95  and  _98
REMARK   38  A    between atoms: _98  and  _99
REMARK   39  A    between atoms: _99  and  _100
REMARK   40  A    between atoms: _103  and  _105
REMARK   41  A    between atoms: _105  and  _106
REMARK   42  A    between atoms: _105  and  _108
REMARK   43  A    between atoms: _108  and  _109
REMARK   44  A    between atoms: _114  and  _116
REMARK   45  A    between atoms: _116  and  _117
REMARK   46  A    between atoms: _116  and  _119
REMARK   47  A    between atoms: _122  and  _124
REMARK   48  A    between atoms: _124  and  _125
REMARK   49  A    between atoms: _124  and  _127
REMARK   50  A    between atoms: _130  and  _132
REMARK   51  A    between atoms: _132  and  _133
REMARK   52  A    between atoms: _132  and  _135
REMARK   53  A    between atoms: _137  and  _139
REMARK   54  A    between atoms: _139  and  _140
REMARK   55  A    between atoms: _139  and  _142
REMARK   56  A    between atoms: _142  and  _143
REMARK   57  A    between atoms: _148  and  _150
REMARK   58  A    between atoms: _150  and  _151
REMARK   59  A    between atoms: _150  and  _153
REMARK   60  A    between atoms: _153  and  _154
REMARK   61  A    between atoms: _157  and  _159
REMARK   62  A    between atoms: _159  and  _160
REMARK   63  A    between atoms: _159  and  _162
REMARK   64  A    between atoms: _162  and  _163
REMARK   65  A    between atoms: _163  and  _164
REMARK   66  A    between atoms: _164  and  _165
REMARK   67  A    between atoms: _165  and  _166
REMARK   68  A    between atoms: _170  and  _172
REMARK   69  A    between atoms: _172  and  _173
REMARK   70  A    between atoms: _172  and  _175
REMARK   71  A    between atoms: _175  and  _176
REMARK   72  A    between atoms: _186  and  _188
REMARK   73  A    between atoms: _188  and  _189
REMARK   74  A    between atoms: _191  and  _193
REMARK   75  A    between atoms: _193  and  _194
REMARK   76  A    between atoms: _193  and  _196
REMARK   77  A    between atoms: _196  and  _197
REMARK   78  A    between atoms: _197  and  _198
REMARK   79  A    between atoms: _198  and  _199
REMARK   80  A    between atoms: _208  and  _210
REMARK   81  A    between atoms: _210  and  _211
REMARK   82  A    between atoms: _210  and  _213
REMARK   83  A    between atoms: _213  and  _214
REMARK   84  A    between atoms: _214  and  _215
REMARK   85  A    between atoms: _218  and  _220
REMARK   86  A    between atoms: _220  and  _221
REMARK   87  A    between atoms: _220  and  _223
REMARK   88  A    between atoms: _223  and  _224
REMARK   89  A    between atoms: _224  and  _225
REMARK   90  A    between atoms: _228  and  _230
REMARK   91  A    between atoms: _230  and  _231
REMARK   92  A    between atoms: _230  and  _233
REMARK   93  A    between atoms: _233  and  _234
REMARK   94  A    between atoms: _234  and  _235
REMARK   95  A    between atoms: _235  and  _236
REMARK   96  A    between atoms: _245  and  _247
REMARK   97  A    between atoms: _247  and  _248
REMARK   98  A    between atoms: _247  and  _250
REMARK   99  A    between atoms: _250  and  _251
REMARK  100  A    between atoms: _251  and  _252
REMARK  101  A    between atoms: _252  and  _253
REMARK                            x       y       z     vdW  Elec       q    Type
REMARK                         _______ _______ _______ _____ _____    ______ ____
ROOT
ATOM      1  NE  ARG A   1      19.232  -9.537   4.391  0.00  0.00    -0.265 N 
ATOM      2  HE  ARG A   1      18.403  -8.916   4.295  0.00  0.00    +0.259 HD
ATOM      3  CZ  ARG A   1      20.134  -9.515   3.421  0.00  0.00    +0.342 C 
ATOM      4  NH2 ARG A   1      21.213 -10.271   3.504  0.00  0.00    -0.292 N 
ATOM      5 HH21 ARG A   1      21.356 -10.885   4.331  0.00  0.00    +0.255 HD
ATOM      6 HH22 ARG A   1      21.920 -10.253   2.742  0.00  0.00    +0.255 HD
ATOM      7  NH1 ARG A   1      19.962  -8.709   2.379  0.00  0.00    -0.292 N 
ATOM      8 HH11 ARG A   1      19.122  -8.098   2.327  0.00  0.00    +0.255 HD
ATOM      9 HH12 ARG A   1      20.668  -8.689   1.615  0.00  0.00    +0.255 HD
ENDROOT
BRANCH   1  10
ATOM     10  CD  ARG A   1      19.320 -10.370   5.581  0.00  0.00    +0.174 C 
BRANCH  10  11
ATOM     11  CG  ARG A   1      18.138 -10.102   6.482  0.00  0.00    +0.045 C 
BRANCH  11  12
ATOM     12  CB  ARG A   1      18.209 -10.873   7.780  0.00  0.00    +0.029 C 
BRANCH  12  13
ATOM     13  CA  ARG A   1      16.995 -10.634   8.685  0.00  0.00    +0.133 C 
BRANCH  13  14
ATOM     14  N   ARG A   1      16.909  -9.238   9.046  0.00  0.00    -0.239 NA
ATOM     15  H   ARG A   1      17.716  -8.819   9.551  0.00  0.00    +0.142 HD
ENDBRANCH  13  14
BRANCH  13  16
ATOM     16  C   ARG A   1      17.134 -11.462   9.949  0.00  0.00    +0.224 C 
ATOM     17  O   ARG A   1      18.054 -11.252  10.742  0.00  0.00    -0.287 OA
ENDBRANCH  13  16
ENDBRANCH  12  13
ENDBRANCH  11  12
ENDBRANCH  10  11
ENDBRANCH   1  10
TORSDOF 6
REMARK  Name = ../refined-set-2016/4jc1/4jc1_pocket.pdb
REMARK  101 active torsions:
REMARK  status: ('A' for Active; 'I' for Inactive)
REMARK    1  A    between atoms: _1  and  _3
REMARK    2  A    between atoms: _3  and  _4
REMARK    3  A    between atoms: _3  and  _6
REMARK    4  A    between atoms: _6  and  _7
REMARK    5  A    between atoms: _7  and  _8
REMARK    6  A    between atoms: _8  and  _9
REMARK    7  A    between atoms: _18  and  _20
REMARK    8  A    between atoms: _20  and  _21
REMARK    9  A    between atoms: _20  and  _23
REMARK   10  A    between atoms: _23  and  _24
REMARK   11  A    between atoms: _27  and  _29
REMARK   12  A    between atoms: _29  and  _30
REMARK   13  A    between atoms: _33  and  _35
REMARK   14  A    between atoms: _35  and  _36
REMARK   15  A    between atoms: _35  and  _38
REMARK   16  A    between atoms: _38  and  _39
REMARK   17  A    between atoms: _42  and  _44
REMARK   18  A    between atoms: _44  and  _45
REMARK   19  A    between atoms: _44  and  _47
REMARK   20  A    between atoms: _47  and  _48
REMARK   21  A    between atoms: _53  and  _55
REMARK   22  A    between atoms: _55  and  _56
REMARK   23  A    between atoms: _55  and  _58
REMARK   24  A    between atoms: _58  and  _59
REMARK   25  A    between atoms: _65  and  _67
REMARK   26  A    between atoms: _67  and  _68
REMARK   27  A    between atoms: _67  and  _70
REMARK   28  A    between atoms: _70  and  _71
REMARK   29  A    between atoms: _76  and  _78
REMARK   30  A    between atoms: _78  and  _79
REMARK   31  A    between atoms: _78  and  _81
REMARK   32  A    between atoms: _81  and  _82
REMARK   33  A    between atoms: _82  and  _83
REMARK   34  A    between atoms: _83  and  _84
REMARK   35  A    between atoms: _93  and  _95
REMARK   36  A    between atoms: _95  and  _96
REMARK   37  A    between atoms: _95  and  _98
REMARK   38  A    between atoms: _98  and  _99
REMARK   39  A    between atoms: _99  and  _100
REMARK   40  A    between atoms: _103  and  _105
REMARK   41  A    between atoms: _105  and  _106
REMARK   42  A    between atoms: _105  and  _108
REMARK   43  A    between atoms: _108  and  _109
REMARK   44  A    between atoms: _114  and  _116
REMARK   45  A    between atoms: _116  and  _117
REMARK   46  A    between atoms: _116  and  _119
REMARK   47  A    between atoms: _122  and  _124
REMARK   48  A    between atoms: _124  and  _125
REMARK   49  A    between atoms: _124  and  _127
REMARK   50  A    between atoms: _130  and  _132
REMARK   51  A    between atoms: _132  and  _133
REMARK   52  A    between atoms: _132  and  _135
REMARK   53  A    between atoms: _137  and  _139
REMARK   54  A    between atoms: _139  and  _140
REMARK   55  A    between atoms: _139  and  _142
REMARK   56  A    between atoms: _142  and  _143
REMARK   57  A    between atoms: _148  and  _150
REMARK   58  A    between atoms: _150  and  _151
REMARK   59  A    between atoms: _150  and  _153
REMARK   60  A    between atoms: _153  and  _154
REMARK   61  A    between atoms: _157  and  _159
REMARK   62  A    between atoms: _159  and  _160
REMARK   63  A    between atoms: _159  and  _162
REMARK   64  A    between atoms: _162  and  _163
REMARK   65  A    between atoms: _163  and  _164
REMARK   66  A    between atoms: _164  and  _165
REMARK   67  A    between atoms: _165  and  _166
REMARK   68  A    between atoms: _170  and  _172
REMARK   69  A    between atoms: _172  and  _173
REMARK   70  A    between atoms: _172  and  _175
REMARK   71  A    between atoms: _175  and  _176
REMARK   72  A    between atoms: _186  and  _188
REMARK   73  A    between atoms: _188  and  _189
REMARK   74  A    between atoms: _191  and  _193
REMARK   75  A    between atoms: _193  and  _194
REMARK   76  A    between atoms: _193  and  _196
REMARK   77  A    between atoms: _196  and  _197
REMARK   78  A    between atoms: _197  and  _198
REMARK   79  A    between atoms: _198  and  _199
REMARK   80  A    between atoms: _208  and  _210
REMARK   81  A    between atoms: _210  and  _211
REMARK   82  A    between atoms: _210  and  _213
REMARK   83  A    between atoms: _213  and  _214
REMARK   84  A    between atoms: _214  and  _215
REMARK   85  A    between atoms: _218  and  _220
REMARK   86  A    between atoms: _220  and  _221
REMARK   87  A    between atoms: _220  and  _223
REMARK   88  A    between atoms: _223  and  _224
REMARK   89  A    between atoms: _224  and  _225
REMARK   90  A    between atoms: _228  and  _230
REMARK   91  A    between atoms: _230  and  _231
REMARK   92  A    between atoms: _230  and  _233
REMARK   93  A    between atoms: _233  and  _234
REMARK   94  A    between atoms: _234  and  _235
REMARK   95  A    between atoms: _235  and  _236
REMARK   96  A    between atoms: _245  and  _247
REMARK   97  A    between atoms: _247  and  _248
REMARK   98  A    between atoms: _247  and  _250
REMARK   99  A    between atoms: _250  and  _251
REMARK  100  A    between atoms: _251  and  _252
REMARK  101  A    between atoms: _252  and  _253
REMARK                            x       y       z     vdW  Elec       q    Type
REMARK                         _______ _______ _______ _____ _____    ______ ____
ROOT
ATOM      1  C   GLU A   1      22.555 -15.767   8.611  0.00  0.00    +0.238 C 
ATOM      2  O   GLU A   1      23.236 -15.248   9.504  0.00  0.00    -0.274 OA
ATOM      3  N   ASN A   2      22.782 -16.990   8.137  0.00  0.00    -0.298 N 
ATOM      4  H   ASN A   2      22.194 -17.347   7.357  0.00  0.00    +0.150 HD
ENDROOT
BRANCH   1   5
ATOM      5  CA  GLU A   1      21.369 -15.031   8.017  0.00  0.00    +0.145 C 
BRANCH   5   6
ATOM      6  N   GLU A   1      20.330 -15.071   9.019  0.00  0.00    -0.238 NA
ATOM      7  H   GLU A   1      20.414 -14.477   9.868  0.00  0.00    +0.142 HD
ENDBRANCH   5   6
BRANCH   5   8
ATOM      8  CB  GLU A   1      21.738 -13.614   7.643  0.00  0.00    +0.038 C 
BRANCH   8   9
ATOM      9  CG  GLU A   1      22.676 -13.596   6.456  0.00  0.00    +0.116 C 
BRANCH   9  10
ATOM     10  CD  GLU A   1      23.304 -12.254   6.246  0.00  0.00    +0.365 C 
ATOM     11  OE2 GLU A   1      24.031 -11.782   7.144  0.00  0.00    -0.246 OA
ATOM     12  OE1 GLU A   1      23.061 -11.671   5.186  0.00  0.00    -0.246 OA
ENDBRANCH   9  10
ENDBRANCH   8   9
ENDBRANCH   5   8
ENDBRANCH   1   5
BRANCH   3  13
ATOM     13  CA  ASN A   2      23.828 -17.840   8.678  0.00  0.00    +0.146 C 
BRANCH  13  14
ATOM     14  C   ASN A   2      23.715 -17.973  10.206  0.00  0.00    +0.227 C 
ATOM     15  O   ASN A   2      24.718 -17.893  10.928  0.00  0.00    -0.286 OA
ENDBRANCH  13  14
BRANCH  13  16
ATOM     16  CB  ASN A   2      25.213 -17.313   8.264  0.00  0.00    +0.112 C 
BRANCH  16  17
ATOM     17  CG  ASN A   2      25.373 -17.205   6.755  0.00  0.00    +0.222 C 
ATOM     18  ND2 ASN A   2      25.750 -16.025   6.280  0.00  0.00    -0.329 N 
ATOM     19 HD21 ASN A   2      25.914 -15.231   6.931  0.00  0.00    +0.145 HD
ATOM     20 HD22 ASN A   2      25.881 -15.894   5.257  0.00  0.00    +0.145 HD
ATOM     21  OD1 ASN A   2      25.165 -18.179   6.026  0.00  0.00    -0.275 OA
ENDBRANCH  16  17
ENDBRANCH  13  16
ENDBRANCH   3  13
TORSDOF 9
REMARK  Name = ../refined-set-2016/4jc1/4jc1_pocket.pdb
REMARK  101 active torsions:
REMARK  status: ('A' for Active; 'I' for Inactive)
REMARK    1  A    between atoms: _1  and  _3
REMARK    2  A    between atoms: _3  and  _4
REMARK    3  A    between atoms: _3  and  _6
REMARK    4  A    between atoms: _6  and  _7
REMARK    5  A    between atoms: _7  and  _8
REMARK    6  A    between atoms: _8  and  _9
REMARK    7  A    between atoms: _18  and  _20
REMARK    8  A    between atoms: _20  and  _21
REMARK    9  A    between atoms: _20  and  _23
REMARK   10  A    between atoms: _23  and  _24
REMARK   11  A    between atoms: _27  and  _29
REMARK   12  A    between atoms: _29  and  _30
REMARK   13  A    between atoms: _33  and  _35
REMARK   14  A    between atoms: _35  and  _36
REMARK   15  A    between atoms: _35  and  _38
REMARK   16  A    between atoms: _38  and  _39
REMARK   17  A    between atoms: _42  and  _44
REMARK   18  A    between atoms: _44  and  _45
REMARK   19  A    between atoms: _44  and  _47
REMARK   20  A    between atoms: _47  and  _48
REMARK   21  A    between atoms: _53  and  _55
REMARK   22  A    between atoms: _55  and  _56
REMARK   23  A    between atoms: _55  and  _58
REMARK   24  A    between atoms: _58  and  _59
REMARK   25  A    between atoms: _65  and  _67
REMARK   26  A    between atoms: _67  and  _68
REMARK   27  A    between atoms: _67  and  _70
REMARK   28  A    between atoms: _70  and  _71
REMARK   29  A    between atoms: _76  and  _78
REMARK   30  A    between atoms: _78  and  _79
REMARK   31  A    between atoms: _78  and  _81
REMARK   32  A    between atoms: _81  and  _82
REMARK   33  A    between atoms: _82  and  _83
REMARK   34  A    between atoms: _83  and  _84
REMARK   35  A    between atoms: _93  and  _95
REMARK   36  A    between atoms: _95  and  _96
REMARK   37  A    between atoms: _95  and  _98
REMARK   38  A    between atoms: _98  and  _99
REMARK   39  A    between atoms: _99  and  _100
REMARK   40  A    between atoms: _103  and  _105
REMARK   41  A    between atoms: _105  and  _106
REMARK   42  A    between atoms: _105  and  _108
REMARK   43  A    between atoms: _108  and  _109
REMARK   44  A    between atoms: _114  and  _116
REMARK   45  A    between atoms: _116  and  _117
REMARK   46  A    between atoms: _116  and  _119
REMARK   47  A    between atoms: _122  and  _124
REMARK   48  A    between atoms: _124  and  _125
REMARK   49  A    between atoms: _124  and  _127
REMARK   50  A    between atoms: _130  and  _132
REMARK   51  A    between atoms: _132  and  _133
REMARK   52  A    between atoms: _132  and  _135
REMARK   53  A    between atoms: _137  and  _139
REMARK   54  A    between atoms: _139  and  _140
REMARK   55  A    between atoms: _139  and  _142
REMARK   56  A    between atoms: _142  and  _143
REMARK   57  A    between atoms: _148  and  _150
REMARK   58  A    between atoms: _150  and  _151
REMARK   59  A    between atoms: _150  and  _153
REMARK   60  A    between atoms: _153  and  _154
REMARK   61  A    between atoms: _157  and  _159
REMARK   62  A    between atoms: _159  and  _160
REMARK   63  A    between atoms: _159  and  _162
REMARK   64  A    between atoms: _162  and  _163
REMARK   65  A    between atoms: _163  and  _164
REMARK   66  A    between atoms: _164  and  _165
REMARK   67  A    between atoms: _165  and  _166
REMARK   68  A    between atoms: _170  and  _172
REMARK   69  A    between atoms: _172  and  _173
REMARK   70  A    between atoms: _172  and  _175
REMARK   71  A    between atoms: _175  and  _176
REMARK   72  A    between atoms: _186  and  _188
REMARK   73  A    between atoms: _188  and  _189
REMARK   74  A    between atoms: _191  and  _193
REMARK   75  A    between atoms: _193  and  _194
REMARK   76  A    between atoms: _193  and  _196
REMARK   77  A    between atoms: _196  and  _197
REMARK   78  A    between atoms: _197  and  _198
REMARK   79  A    between atoms: _198  and  _199
REMARK   80  A    between atoms: _208  and  _210
REMARK   81  A    between atoms: _210  and  _211
REMARK   82  A    between atoms: _210  and  _213
REMARK   83  A    between atoms: _213  and  _214
REMARK   84  A    between atoms: _214  and  _215
REMARK   85  A    between atoms: _218  and  _220
REMARK   86  A    between atoms: _220  and  _221
REMARK   87  A    between atoms: _220  and  _223
REMARK   88  A    between atoms: _223  and  _224
REMARK   89  A    between atoms: _224  and  _225
REMARK   90  A    between atoms: _228  and  _230
REMARK   91  A    between atoms: _230  and  _231
REMARK   92  A    between atoms: _230  and  _233
REMARK   93  A    between atoms: _233  and  _234
REMARK   94  A    between atoms: _234  and  _235
REMARK   95  A    between atoms: _235  and  _236
REMARK   96  A    between atoms: _245  and  _247
REMARK   97  A    between atoms: _247  and  _248
REMARK   98  A    between atoms: _247  and  _250
REMARK   99  A    between atoms: _250  and  _251
REMARK  100  A    between atoms: _251  and  _252
REMARK  101  A    between atoms: _252  and  _253
REMARK                            x       y       z     vdW  Elec       q    Type
REMARK                         _______ _______ _______ _____ _____    ______ ____
ROOT
ATOM      1  CA  VAL A   1      21.244  -8.743  11.418  0.00  0.00    +0.133 C 
ENDROOT
BRANCH   1   2
ATOM      2  CB  VAL A   1      22.434  -9.121  10.508  0.00  0.00    +0.023 C 
ATOM      3  CG2 VAL A   1      23.315  -7.911  10.193  0.00  0.00    +0.002 C 
ATOM      4  CG1 VAL A   1      21.975  -9.817   9.240  0.00  0.00    +0.002 C 
ENDBRANCH   1   2
BRANCH   1   5
ATOM      5  N   VAL A   1      20.531  -9.929  11.885  0.00  0.00    -0.239 NA
ATOM      6  H   VAL A   1      19.722 -10.282  11.335  0.00  0.00    +0.142 HD
ENDBRANCH   1   5
BRANCH   1   7
ATOM      7  C   VAL A   1      20.292  -7.816  10.695  0.00  0.00    +0.224 C 
ATOM      8  O   VAL A   1      19.317  -8.264  10.129  0.00  0.00    -0.287 OA
ENDBRANCH   1   7
TORSDOF 3
REMARK  Name = ../refined-set-2016/4jc1/4jc1_pocket.pdb
REMARK  101 active torsions:
REMARK  status: ('A' for Active; 'I' for Inactive)
REMARK    1  A    between atoms: _1  and  _3
REMARK    2  A    between atoms: _3  and  _4
REMARK    3  A    between atoms: _3  and  _6
REMARK    4  A    between atoms: _6  and  _7
REMARK    5  A    between atoms: _7  and  _8
REMARK    6  A    between atoms: _8  and  _9
REMARK    7  A    between atoms: _18  and  _20
REMARK    8  A    between atoms: _20  and  _21
REMARK    9  A    between atoms: _20  and  _23
REMARK   10  A    between atoms: _23  and  _24
REMARK   11  A    between atoms: _27  and  _29
REMARK   12  A    between atoms: _29  and  _30
REMARK   13  A    between atoms: _33  and  _35
REMARK   14  A    between atoms: _35  and  _36
REMARK   15  A    between atoms: _35  and  _38
REMARK   16  A    between atoms: _38  and  _39
REMARK   17  A    between atoms: _42  and  _44
REMARK   18  A    between atoms: _44  and  _45
REMARK   19  A    between atoms: _44  and  _47
REMARK   20  A    between atoms: _47  and  _48
REMARK   21  A    between atoms: _53  and  _55
REMARK   22  A    between atoms: _55  and  _56
REMARK   23  A    between atoms: _55  and  _58
REMARK   24  A    between atoms: _58  and  _59
REMARK   25  A    between atoms: _65  and  _67
REMARK   26  A    between atoms: _67  and  _68
REMARK   27  A    between atoms: _67  and  _70
REMARK   28  A    between atoms: _70  and  _71
REMARK   29  A    between atoms: _76  and  _78
REMARK   30  A    between atoms: _78  and  _79
REMARK   31  A    between atoms: _78  and  _81
REMARK   32  A    between atoms: _81  and  _82
REMARK   33  A    between atoms: _82  and  _83
REMARK   34  A    between atoms: _83  and  _84
REMARK   35  A    between atoms: _93  and  _95
REMARK   36  A    between atoms: _95  and  _96
REMARK   37  A    between atoms: _95  and  _98
REMARK   38  A    between atoms: _98  and  _99
REMARK   39  A    between atoms: _99  and  _100
REMARK   40  A    between atoms: _103  and  _105
REMARK   41  A    between atoms: _105  and  _106
REMARK   42  A    between atoms: _105  and  _108
REMARK   43  A    between atoms: _108  and  _109
REMARK   44  A    between atoms: _114  and  _116
REMARK   45  A    between atoms: _116  and  _117
REMARK   46  A    between atoms: _116  and  _119
REMARK   47  A    between atoms: _122  and  _124
REMARK   48  A    between atoms: _124  and  _125
REMARK   49  A    between atoms: _124  and  _127
REMARK   50  A    between atoms: _130  and  _132
REMARK   51  A    between atoms: _132  and  _133
REMARK   52  A    between atoms: _132  and  _135
REMARK   53  A    between atoms: _137  and  _139
REMARK   54  A    between atoms: _139  and  _140
REMARK   55  A    between atoms: _139  and  _142
REMARK   56  A    between atoms: _142  and  _143
REMARK   57  A    between atoms: _148  and  _150
REMARK   58  A    between atoms: _150  and  _151
REMARK   59  A    between atoms: _150  and  _153
REMARK   60  A    between atoms: _153  and  _154
REMARK   61  A    between atoms: _157  and  _159
REMARK   62  A    between atoms: _159  and  _160
REMARK   63  A    between atoms: _159  and  _162
REMARK   64  A    between atoms: _162  and  _163
REMARK   65  A    between atoms: _163  and  _164
REMARK   66  A    between atoms: _164  and  _165
REMARK   67  A    between atoms: _165  and  _166
REMARK   68  A    between atoms: _170  and  _172
REMARK   69  A    between atoms: _172  and  _173
REMARK   70  A    between atoms: _172  and  _175
REMARK   71  A    between atoms: _175  and  _176
REMARK   72  A    between atoms: _186  and  _188
REMARK   73  A    between atoms: _188  and  _189
REMARK   74  A    between atoms: _191  and  _193
REMARK   75  A    between atoms: _193  and  _194
REMARK   76  A    between atoms: _193  and  _196
REMARK   77  A    between atoms: _196  and  _197
REMARK   78  A    between atoms: _197  and  _198
REMARK   79  A    between atoms: _198  and  _199
REMARK   80  A    between atoms: _208  and  _210
REMARK   81  A    between atoms: _210  and  _211
REMARK   82  A    between atoms: _210  and  _213
REMARK   83  A    between atoms: _213  and  _214
REMARK   84  A    between atoms: _214  and  _215
REMARK   85  A    between atoms: _218  and  _220
REMARK   86  A    between atoms: _220  and  _221
REMARK   87  A    between atoms: _220  and  _223
REMARK   88  A    between atoms: _223  and  _224
REMARK   89  A    between atoms: _224  and  _225
REMARK   90  A    between atoms: _228  and  _230
REMARK   91  A    between atoms: _230  and  _231
REMARK   92  A    between atoms: _230  and  _233
REMARK   93  A    between atoms: _233  and  _234
REMARK   94  A    between atoms: _234  and  _235
REMARK   95  A    between atoms: _235  and  _236
REMARK   96  A    between atoms: _245  and  _247
REMARK   97  A    between atoms: _247  and  _248
REMARK   98  A    between atoms: _247  and  _250
REMARK   99  A    between atoms: _250  and  _251
REMARK  100  A    between atoms: _251  and  _252
REMARK  101  A    between atoms: _252  and  _253
REMARK                            x       y       z     vdW  Elec       q    Type
REMARK                         _______ _______ _______ _____ _____    ______ ____
ROOT
ATOM      1  CA  ASN A   3      21.256  -0.446   1.252  0.00  0.00    +0.158 C 
ENDROOT
BRANCH   1   4
ATOM      2  C   CYS A   2      21.323  -1.107   3.590  0.00  0.00    +0.242 C 
ATOM      3  O   CYS A   2      22.538  -1.326   3.523  0.00  0.00    -0.273 OA
ATOM      4  N   ASN A   3      20.630  -0.663   2.549  0.00  0.00    -0.297 N 
ATOM      5  H   ASN A   3      19.615  -0.465   2.662  0.00  0.00    +0.150 HD
BRANCH   2   6
ATOM      6  CA  CYS A   2      20.564  -1.313   4.891  0.00  0.00    +0.160 C 
BRANCH   6   9
ATOM      7  C   VAL A   1      20.249  -3.550   5.838  0.00  0.00    +0.238 C 
ATOM      8  O   VAL A   1      19.026  -3.516   5.683  0.00  0.00    -0.274 OA
ATOM      9  N   CYS A   2      21.042  -2.526   5.562  0.00  0.00    -0.297 N 
ATOM     10  H   CYS A   2      22.045  -2.585   5.832  0.00  0.00    +0.150 HD
BRANCH   7  11
ATOM     11  CA  VAL A   1      20.951  -4.799   6.367  0.00  0.00    +0.145 C 
BRANCH  11  12
ATOM     12  CB  VAL A   1      20.956  -5.901   5.293  0.00  0.00    +0.025 C 
ATOM     13  CG2 VAL A   1      21.695  -7.129   5.828  0.00  0.00    +0.002 C 
ATOM     14  CG1 VAL A   1      21.581  -5.404   3.990  0.00  0.00    +0.002 C 
ENDBRANCH  11  12
BRANCH  11  15
ATOM     15  N   VAL A   1      20.243  -5.224   7.562  0.00  0.00    -0.238 NA
ATOM     16  H   VAL A   1      19.295  -5.638   7.455  0.00  0.00    +0.142 HD
ENDBRANCH  11  15
ENDBRANCH   7  11
ENDBRANCH   6   9
BRANCH   6  17
ATOM     17  CB  CYS A   2      20.758  -0.099   5.787  0.00  0.00    +0.098 C 
ATOM     18  SG  CYS A   2      19.878  -0.194   7.344  0.00  0.00    -0.080 S 
ENDBRANCH   6  17
ENDBRANCH   2   6
ENDBRANCH   1   4
BRANCH   1  19
ATOM     19  C   ASN A   3      20.378   0.447   0.375  0.00  0.00    +0.241 C 
ATOM     20  O   ASN A   3      19.257   0.836   0.772  0.00  0.00    -0.273 OA
ATOM     21  N   THR A   4      20.908   0.745  -0.812  0.00  0.00    -0.295 N 
ATOM     22  H   THR A   4      21.856   0.369  -1.015  0.00  0.00    +0.150 HD
BRANCH  21  23
ATOM     23  CA  THR A   4      20.275   1.554  -1.856  0.00  0.00    +0.176 C 
BRANCH  23  24
ATOM     24  C   THR A   4      20.392   0.779  -3.159  0.00  0.00    +0.243 C 
ATOM     25  O   THR A   4      21.421   0.164  -3.405  0.00  0.00    -0.273 OA
ATOM     26  N   LYS A   5      19.323   0.788  -3.959  0.00  0.00    -0.298 N 
ATOM     27  H   LYS A   5      18.464   1.270  -3.625  0.00  0.00    +0.150 HD
BRANCH  26  28
ATOM     28  CA  LYS A   5      19.292   0.156  -5.282  0.00  0.00    +0.137 C 
BRANCH  28  29
ATOM     29  C   LYS A   5      19.129   1.238  -6.345  0.00  0.00    +0.227 C 
ATOM     30  O   LYS A   5      18.121   1.954  -6.355  0.00  0.00    -0.286 OA
ENDBRANCH  28  29
BRANCH  28  31
ATOM     31  CB  LYS A   5      18.132  -0.848  -5.382  0.00  0.00    +0.028 C 
BRANCH  31  32
ATOM     32  CG  LYS A   5      18.273  -1.846  -6.523  0.00  0.00    -0.000 C 
BRANCH  32  33
ATOM     33  CD  LYS A   5      17.214  -2.941  -6.480  0.00  0.00    -0.024 C 
BRANCH  33  34
ATOM     34  CE  LYS A   5      15.869  -2.451  -6.977  0.00  0.00    -0.086 C 
BRANCH  34  35
ATOM     35  NZ  LYS A   5      14.858  -3.548  -6.975  0.00  0.00    +0.380 N 
ATOM     36  HZ1 LYS A   5      14.742  -3.909  -6.007  0.00  0.00    -0.089 HD
ATOM     37  HZ2 LYS A   5      13.949  -3.180  -7.320  0.00  0.00    -0.089 HD
ATOM     38  HZ3 LYS A   5      15.181  -4.317  -7.597  0.00  0.00    -0.089 HD
ENDBRANCH  34  35
ENDBRANCH  33  34
ENDBRANCH  32  33
ENDBRANCH  31  32
ENDBRANCH  28  31
ENDBRANCH  26  28
ENDBRANCH  23  24
BRANCH  23  39
ATOM     39  CB  THR A   4      20.994   2.922  -1.945  0.00  0.00    +0.137 C 
ATOM     40  CG2 THR A   4      20.559   3.754  -3.141  0.00  0.00    +0.034 C 
BRANCH  39  41
ATOM     41  OG1 THR A   4      20.735   3.652  -0.746  0.00  0.00    -0.382 OA
ATOM     42  HG1 THR A   4      21.076   3.141   0.030  0.00  0.00    +0.210 HD
ENDBRANCH  39  41
ENDBRANCH  23  39
ENDBRANCH  21  23
ENDBRANCH   1  19
BRANCH   1  43
ATOM     43  CB  ASN A   3      21.519  -1.814   0.566  0.00  0.00    +0.114 C 
BRANCH  43  44
ATOM     44  CG  ASN A   3      22.697  -1.810  -0.393  0.00  0.00    +0.222 C 
ATOM     45  OD1 ASN A   3      23.215  -0.756  -0.778  0.00  0.00    -0.275 OA
ATOM     46  ND2 ASN A   3      23.133  -3.015  -0.794  0.00  0.00    -0.329 N 
ATOM     47 HD21 ASN A   3      22.669  -3.878  -0.446  0.00  0.00    +0.145 HD
ATOM     48 HD22 ASN A   3      23.935  -3.085  -1.453  0.00  0.00    +0.145 HD
ENDBRANCH  43  44
ENDBRANCH   1  43
TORSDOF 21
REMARK  Name = ../refined-set-2016/4jc1/4jc1_pocket.pdb
REMARK  101 active torsions:
REMARK  status: ('A' for Active; 'I' for Inactive)
REMARK    1  A    between atoms: _1  and  _3
REMARK    2  A    between atoms: _3  and  _4
REMARK    3  A    between atoms: _3  and  _6
REMARK    4  A    between atoms: _6  and  _7
REMARK    5  A    between atoms: _7  and  _8
REMARK    6  A    between atoms: _8  and  _9
REMARK    7  A    between atoms: _18  and  _20
REMARK    8  A    between atoms: _20  and  _21
REMARK    9  A    between atoms: _20  and  _23
REMARK   10  A    between atoms: _23  and  _24
REMARK   11  A    between atoms: _27  and  _29
REMARK   12  A    between atoms: _29  and  _30
REMARK   13  A    between atoms: _33  and  _35
REMARK   14  A    between atoms: _35  and  _36
REMARK   15  A    between atoms: _35  and  _38
REMARK   16  A    between atoms: _38  and  _39
REMARK   17  A    between atoms: _42  and  _44
REMARK   18  A    between atoms: _44  and  _45
REMARK   19  A    between atoms: _44  and  _47
REMARK   20  A    between atoms: _47  and  _48
REMARK   21  A    between atoms: _53  and  _55
REMARK   22  A    between atoms: _55  and  _56
REMARK   23  A    between atoms: _55  and  _58
REMARK   24  A    between atoms: _58  and  _59
REMARK   25  A    between atoms: _65  and  _67
REMARK   26  A    between atoms: _67  and  _68
REMARK   27  A    between atoms: _67  and  _70
REMARK   28  A    between atoms: _70  and  _71
REMARK   29  A    between atoms: _76  and  _78
REMARK   30  A    between atoms: _78  and  _79
REMARK   31  A    between atoms: _78  and  _81
REMARK   32  A    between atoms: _81  and  _82
REMARK   33  A    between atoms: _82  and  _83
REMARK   34  A    between atoms: _83  and  _84
REMARK   35  A    between atoms: _93  and  _95
REMARK   36  A    between atoms: _95  and  _96
REMARK   37  A    between atoms: _95  and  _98
REMARK   38  A    between atoms: _98  and  _99
REMARK   39  A    between atoms: _99  and  _100
REMARK   40  A    between atoms: _103  and  _105
REMARK   41  A    between atoms: _105  and  _106
REMARK   42  A    between atoms: _105  and  _108
REMARK   43  A    between atoms: _108  and  _109
REMARK   44  A    between atoms: _114  and  _116
REMARK   45  A    between atoms: _116  and  _117
REMARK   46  A    between atoms: _116  and  _119
REMARK   47  A    between atoms: _122  and  _124
REMARK   48  A    between atoms: _124  and  _125
REMARK   49  A    between atoms: _124  and  _127
REMARK   50  A    between atoms: _130  and  _132
REMARK   51  A    between atoms: _132  and  _133
REMARK   52  A    between atoms: _132  and  _135
REMARK   53  A    between atoms: _137  and  _139
REMARK   54  A    between atoms: _139  and  _140
REMARK   55  A    between atoms: _139  and  _142
REMARK   56  A    between atoms: _142  and  _143
REMARK   57  A    between atoms: _148  and  _150
REMARK   58  A    between atoms: _150  and  _151
REMARK   59  A    between atoms: _150  and  _153
REMARK   60  A    between atoms: _153  and  _154
REMARK   61  A    between atoms: _157  and  _159
REMARK   62  A    between atoms: _159  and  _160
REMARK   63  A    between atoms: _159  and  _162
REMARK   64  A    between atoms: _162  and  _163
REMARK   65  A    between atoms: _163  and  _164
REMARK   66  A    between atoms: _164  and  _165
REMARK   67  A    between atoms: _165  and  _166
REMARK   68  A    between atoms: _170  and  _172
REMARK   69  A    between atoms: _172  and  _173
REMARK   70  A    between atoms: _172  and  _175
REMARK   71  A    between atoms: _175  and  _176
REMARK   72  A    between atoms: _186  and  _188
REMARK   73  A    between atoms: _188  and  _189
REMARK   74  A    between atoms: _191  and  _193
REMARK   75  A    between atoms: _193  and  _194
REMARK   76  A    between atoms: _193  and  _196
REMARK   77  A    between atoms: _196  and  _197
REMARK   78  A    between atoms: _197  and  _198
REMARK   79  A    between atoms: _198  and  _199
REMARK   80  A    between atoms: _208  and  _210
REMARK   81  A    between atoms: _210  and  _211
REMARK   82  A    between atoms: _210  and  _213
REMARK   83  A    between atoms: _213  and  _214
REMARK   84  A    between atoms: _214  and  _215
REMARK   85  A    between atoms: _218  and  _220
REMARK   86  A    between atoms: _220  and  _221
REMARK   87  A    between atoms: _220  and  _223
REMARK   88  A    between atoms: _223  and  _224
REMARK   89  A    between atoms: _224  and  _225
REMARK   90  A    between atoms: _228  and  _230
REMARK   91  A    between atoms: _230  and  _231
REMARK   92  A    between atoms: _230  and  _233
REMARK   93  A    between atoms: _233  and  _234
REMARK   94  A    between atoms: _234  and  _235
REMARK   95  A    between atoms: _235  and  _236
REMARK   96  A    between atoms: _245  and  _247
REMARK   97  A    between atoms: _247  and  _248
REMARK   98  A    between atoms: _247  and  _250
REMARK   99  A    between atoms: _250  and  _251
REMARK  100  A    between atoms: _251  and  _252
REMARK  101  A    between atoms: _252  and  _253
REMARK                            x       y       z     vdW  Elec       q    Type
REMARK                         _______ _______ _______ _____ _____    ______ ____
ROOT
ATOM      1  C   ARG A   3      26.488  -1.368   0.668  0.00  0.00    +0.241 C 
ATOM      2  N   GLU A   4      26.406  -2.550   1.260  0.00  0.00    -0.297 N 
ATOM      3  H   GLU A   4      26.963  -3.345   0.886  0.00  0.00    +0.150 HD
ATOM      4  O   ARG A   3      25.819  -0.405   1.024  0.00  0.00    -0.273 OA
ENDROOT
BRANCH   1   5
ATOM      5  CA  ARG A   3      27.451  -1.250  -0.498  0.00  0.00    +0.149 C 
BRANCH   5   7
ATOM      6  C   GLY A   2      25.882  -1.467  -2.380  0.00  0.00    +0.243 C 
ATOM      7  N   ARG A   3      26.719  -0.731  -1.657  0.00  0.00    -0.297 N 
ATOM      8  H   ARG A   3      26.862   0.263  -1.927  0.00  0.00    +0.150 HD
ATOM      9  O   GLY A   2      25.651  -2.658  -2.146  0.00  0.00    -0.273 OA
BRANCH   6  10
ATOM     10  CA  GLY A   2      25.201  -0.744  -3.527  0.00  0.00    +0.176 C 
BRANCH  10  12
ATOM     11  C   TRP A   1      23.833  -2.293  -4.850  0.00  0.00    +0.239 C 
ATOM     12  N   GLY A   2      23.937  -1.367  -3.901  0.00  0.00    -0.296 N 
ATOM     13  H   GLY A   2      23.074  -1.073  -3.401  0.00  0.00    +0.150 HD
ATOM     14  O   TRP A   1      24.804  -2.714  -5.500  0.00  0.00    -0.274 OA
BRANCH  11  15
ATOM     15  CA  TRP A   1      22.441  -2.843  -5.083  0.00  0.00    +0.149 C 
BRANCH  15  16
ATOM     16  N   TRP A   1      22.220  -3.151  -6.499  0.00  0.00    -0.238 NA
ATOM     17  H   TRP A   1      22.212  -4.143  -6.811  0.00  0.00    +0.142 HD
ENDBRANCH  15  16
BRANCH  15  18
ATOM     18  CB  TRP A   1      22.236  -4.093  -4.238  0.00  0.00    +0.054 C 
BRANCH  18  19
ATOM     19  CG  TRP A   1      20.797  -4.506  -4.165  0.00  0.00    -0.002 A 
ATOM     20  CD2 TRP A   1      19.750  -3.841  -3.396  0.00  0.00    +0.013 A 
ATOM     21  CE3 TRP A   1      19.714  -2.724  -2.561  0.00  0.00    +0.001 A 
ATOM     22  CZ3 TRP A   1      18.500  -2.370  -1.971  0.00  0.00    +0.000 A 
ATOM     23  CH2 TRP A   1      17.332  -3.106  -2.213  0.00  0.00    +0.001 A 
ATOM     24  CZ2 TRP A   1      17.325  -4.231  -3.030  0.00  0.00    +0.017 A 
ATOM     25  CE2 TRP A   1      18.525  -4.597  -3.619  0.00  0.00    +0.056 A 
ATOM     26  NE1 TRP A   1      18.835  -5.625  -4.451  0.00  0.00    -0.352 N 
ATOM     27  HE1 TRP A   1      18.159  -6.339  -4.789  0.00  0.00    +0.166 HD
ATOM     28  CD1 TRP A   1      20.169  -5.588  -4.784  0.00  0.00    +0.068 A 
ENDBRANCH  18  19
ENDBRANCH  15  18
ENDBRANCH  11  15
ENDBRANCH  10  12
ENDBRANCH   6  10
ENDBRANCH   5   7
BRANCH   5  29
ATOM     29  CB  ARG A   3      28.580  -0.286  -0.124  0.00  0.00    +0.033 C 
BRANCH  29  30
ATOM     30  CG  ARG A   3      29.349  -0.620   1.155  0.00  0.00    +0.045 C 
BRANCH  30  31
ATOM     31  CD  ARG A   3      30.371   0.465   1.493  0.00  0.00    +0.174 C 
BRANCH  31  32
ATOM     32  NE  ARG A   3      29.757   1.797   1.525  0.00  0.00    -0.265 N 
ATOM     33  CZ  ARG A   3      29.099   2.320   2.563  0.00  0.00    +0.342 C 
ATOM     34  NH2 ARG A   3      28.965   1.648   3.705  0.00  0.00    -0.292 N 
ATOM     35 HH21 ARG A   3      28.449   2.074   4.501  0.00  0.00    +0.255 HD
ATOM     36 HH22 ARG A   3      29.377   0.698   3.801  0.00  0.00    +0.255 HD
ATOM     37  NH1 ARG A   3      28.574   3.537   2.464  0.00  0.00    -0.292 N 
ATOM     38 HH11 ARG A   3      28.061   3.949   3.269  0.00  0.00    +0.255 HD
ATOM     39 HH12 ARG A   3      28.677   4.077   1.581  0.00  0.00    +0.255 HD
ATOM     40  HE  ARG A   3      29.841   2.382   0.669  0.00  0.00    +0.259 HD
ENDBRANCH  31  32
ENDBRANCH  30  31
ENDBRANCH  29  30
ENDBRANCH   5  29
ENDBRANCH   1   5
BRANCH   2  41
ATOM     41  CA  GLU A   4      25.554  -2.764   2.423  0.00  0.00    +0.149 C 
BRANCH  41  42
ATOM     42  C   GLU A   4      26.141  -2.122   3.669  0.00  0.00    +0.241 C 
ATOM     43  N   GLU A   5      25.262  -1.575   4.495  0.00  0.00    -0.297 N 
ATOM     44  H   GLU A   5      24.292  -1.425   4.150  0.00  0.00    +0.150 HD
ATOM     45  O   GLU A   4      27.356  -2.127   3.878  0.00  0.00    -0.273 OA
BRANCH  43  46
ATOM     46  CA  GLU A   5      25.576  -1.171   5.861  0.00  0.00    +0.149 C 
BRANCH  46  47
ATOM     47  C   GLU A   5      24.847  -2.129   6.790  0.00  0.00    +0.241 C 
ATOM     48  N   ARG A   6      25.577  -2.749   7.706  0.00  0.00    -0.298 N 
ATOM     49  H   ARG A   6      26.583  -2.506   7.803  0.00  0.00    +0.150 HD
ATOM     50  O   GLU A   5      23.646  -2.334   6.659  0.00  0.00    -0.273 OA
BRANCH  48  51
ATOM     51  CA  ARG A   6      25.004  -3.761   8.578  0.00  0.00    +0.137 C 
BRANCH  51  52
ATOM     52  C   ARG A   6      25.070  -3.336  10.035  0.00  0.00    +0.227 C 
ATOM     53  O   ARG A   6      26.041  -2.728  10.465  0.00  0.00    -0.286 OA
ENDBRANCH  51  52
BRANCH  51  54
ATOM     54  CB  ARG A   6      25.741  -5.089   8.389  0.00  0.00    +0.031 C 
BRANCH  54  55
ATOM     55  CG  ARG A   6      25.397  -5.755   7.082  0.00  0.00    +0.045 C 
BRANCH  55  56
ATOM     56  CD  ARG A   6      26.325  -6.868   6.681  0.00  0.00    +0.174 C 
BRANCH  56  57
ATOM     57  NE  ARG A   6      25.718  -7.601   5.572  0.00  0.00    -0.265 N 
ATOM     58  CZ  ARG A   6      25.155  -8.802   5.667  0.00  0.00    +0.342 C 
ATOM     59  NH2 ARG A   6      25.147  -9.457   6.820  0.00  0.00    -0.292 N 
ATOM     60 HH21 ARG A   6      25.584  -9.032   7.663  0.00  0.00    +0.255 HD
ATOM     61 HH22 ARG A   6      24.704 -10.396   6.882  0.00  0.00    +0.255 HD
ATOM     62  NH1 ARG A   6      24.607  -9.359   4.591  0.00  0.00    -0.292 N 
ATOM     63 HH11 ARG A   6      24.165 -10.298   4.659  0.00  0.00    +0.255 HD
ATOM     64 HH12 ARG A   6      24.620  -8.856   3.681  0.00  0.00    +0.255 HD
ATOM     65  HE  ARG A   6      25.727  -7.148   4.636  0.00  0.00    +0.259 HD
ENDBRANCH  56  57
ENDBRANCH  55  56
ENDBRANCH  54  55
ENDBRANCH  51  54
ENDBRANCH  48  51
ENDBRANCH  46  47
BRANCH  46  66
ATOM     66  CB  GLU A   5      25.144   0.271   6.099  0.00  0.00    +0.041 C 
BRANCH  66  67
ATOM     67  CG  GLU A   5      25.904   1.243   5.202  0.00  0.00    +0.116 C 
BRANCH  67  68
ATOM     68  CD  GLU A   5      25.495   2.698   5.383  0.00  0.00    +0.365 C 
ATOM     69  OE2 GLU A   5      25.109   3.100   6.495  0.00  0.00    -0.246 OA
ATOM     70  OE1 GLU A   5      25.586   3.459   4.411  0.00  0.00    -0.246 OA
ENDBRANCH  67  68
ENDBRANCH  66  67
ENDBRANCH  46  66
ENDBRANCH  43  46
ENDBRANCH  41  42
BRANCH  41  71
ATOM     71  CB  GLU A   4      25.375  -4.255   2.686  0.00  0.00    +0.041 C 
BRANCH  71  72
ATOM     72  CG  GLU A   4      24.566  -4.969   1.639  0.00  0.00    +0.116 C 
BRANCH  72  73
ATOM     73  CD  GLU A   4      24.389  -6.456   1.927  0.00  0.00    +0.365 C 
ATOM     74  OE2 GLU A   4      25.167  -7.038   2.726  0.00  0.00    -0.246 OA
ATOM     75  OE1 GLU A   4      23.478  -7.059   1.318  0.00  0.00    -0.246 OA
ENDBRANCH  72  73
ENDBRANCH  71  72
ENDBRANCH  41  71
ENDBRANCH   2  41
TORSDOF 28
REMARK  Name = ../refined-set-2016/4jc1/4jc1_pocket.pdb
REMARK  101 active torsions:
REMARK  status: ('A' for Active; 'I' for Inactive)
REMARK    1  A    between atoms: _1  and  _3
REMARK    2  A    between atoms: _3  and  _4
REMARK    3  A    between atoms: _3  and  _6
REMARK    4  A    between atoms: _6  and  _7
REMARK    5  A    between atoms: _7  and  _8
REMARK    6  A    between atoms: _8  and  _9
REMARK    7  A    between atoms: _18  and  _20
REMARK    8  A    between atoms: _20  and  _21
REMARK    9  A    between atoms: _20  and  _23
REMARK   10  A    between atoms: _23  and  _24
REMARK   11  A    between atoms: _27  and  _29
REMARK   12  A    between atoms: _29  and  _30
REMARK   13  A    between atoms: _33  and  _35
REMARK   14  A    between atoms: _35  and  _36
REMARK   15  A    between atoms: _35  and  _38
REMARK   16  A    between atoms: _38  and  _39
REMARK   17  A    between atoms: _42  and  _44
REMARK   18  A    between atoms: _44  and  _45
REMARK   19  A    between atoms: _44  and  _47
REMARK   20  A    between atoms: _47  and  _48
REMARK   21  A    between atoms: _53  and  _55
REMARK   22  A    between atoms: _55  and  _56
REMARK   23  A    between atoms: _55  and  _58
REMARK   24  A    between atoms: _58  and  _59
REMARK   25  A    between atoms: _65  and  _67
REMARK   26  A    between atoms: _67  and  _68
REMARK   27  A    between atoms: _67  and  _70
REMARK   28  A    between atoms: _70  and  _71
REMARK   29  A    between atoms: _76  and  _78
REMARK   30  A    between atoms: _78  and  _79
REMARK   31  A    between atoms: _78  and  _81
REMARK   32  A    between atoms: _81  and  _82
REMARK   33  A    between atoms: _82  and  _83
REMARK   34  A    between atoms: _83  and  _84
REMARK   35  A    between atoms: _93  and  _95
REMARK   36  A    between atoms: _95  and  _96
REMARK   37  A    between atoms: _95  and  _98
REMARK   38  A    between atoms: _98  and  _99
REMARK   39  A    between atoms: _99  and  _100
REMARK   40  A    between atoms: _103  and  _105
REMARK   41  A    between atoms: _105  and  _106
REMARK   42  A    between atoms: _105  and  _108
REMARK   43  A    between atoms: _108  and  _109
REMARK   44  A    between atoms: _114  and  _116
REMARK   45  A    between atoms: _116  and  _117
REMARK   46  A    between atoms: _116  and  _119
REMARK   47  A    between atoms: _122  and  _124
REMARK   48  A    between atoms: _124  and  _125
REMARK   49  A    between atoms: _124  and  _127
REMARK   50  A    between atoms: _130  and  _132
REMARK   51  A    between atoms: _132  and  _133
REMARK   52  A    between atoms: _132  and  _135
REMARK   53  A    between atoms: _137  and  _139
REMARK   54  A    between atoms: _139  and  _140
REMARK   55  A    between atoms: _139  and  _142
REMARK   56  A    between atoms: _142  and  _143
REMARK   57  A    between atoms: _148  and  _150
REMARK   58  A    between atoms: _150  and  _151
REMARK   59  A    between atoms: _150  and  _153
REMARK   60  A    between atoms: _153  and  _154
REMARK   61  A    between atoms: _157  and  _159
REMARK   62  A    between atoms: _159  and  _160
REMARK   63  A    between atoms: _159  and  _162
REMARK   64  A    between atoms: _162  and  _163
REMARK   65  A    between atoms: _163  and  _164
REMARK   66  A    between atoms: _164  and  _165
REMARK   67  A    between atoms: _165  and  _166
REMARK   68  A    between atoms: _170  and  _172
REMARK   69  A    between atoms: _172  and  _173
REMARK   70  A    between atoms: _172  and  _175
REMARK   71  A    between atoms: _175  and  _176
REMARK   72  A    between atoms: _186  and  _188
REMARK   73  A    between atoms: _188  and  _189
REMARK   74  A    between atoms: _191  and  _193
REMARK   75  A    between atoms: _193  and  _194
REMARK   76  A    between atoms: _193  and  _196
REMARK   77  A    between atoms: _196  and  _197
REMARK   78  A    between atoms: _197  and  _198
REMARK   79  A    between atoms: _198  and  _199
REMARK   80  A    between atoms: _208  and  _210
REMARK   81  A    between atoms: _210  and  _211
REMARK   82  A    between atoms: _210  and  _213
REMARK   83  A    between atoms: _213  and  _214
REMARK   84  A    between atoms: _214  and  _215
REMARK   85  A    between atoms: _218  and  _220
REMARK   86  A    between atoms: _220  and  _221
REMARK   87  A    between atoms: _220  and  _223
REMARK   88  A    between atoms: _223  and  _224
REMARK   89  A    between atoms: _224  and  _225
REMARK   90  A    between atoms: _228  and  _230
REMARK   91  A    between atoms: _230  and  _231
REMARK   92  A    between atoms: _230  and  _233
REMARK   93  A    between atoms: _233  and  _234
REMARK   94  A    between atoms: _234  and  _235
REMARK   95  A    between atoms: _235  and  _236
REMARK   96  A    between atoms: _245  and  _247
REMARK   97  A    between atoms: _247  and  _248
REMARK   98  A    between atoms: _247  and  _250
REMARK   99  A    between atoms: _250  and  _251
REMARK  100  A    between atoms: _251  and  _252
REMARK  101  A    between atoms: _252  and  _253
REMARK                            x       y       z     vdW  Elec       q    Type
REMARK                         _______ _______ _______ _____ _____    ______ ____
ROOT
ATOM      1  NE  ARG A   1      24.576   4.161   0.697  0.00  0.00    -0.265 N 
ATOM      2  HE  ARG A   1      24.779   4.694   1.567  0.00  0.00    +0.259 HD
ATOM      3  CZ  ARG A   1      24.815   2.850   0.695  0.00  0.00    +0.342 C 
ATOM      4  NH2 ARG A   1      25.223   2.267   1.798  0.00  0.00    -0.292 N 
ATOM      5 HH21 ARG A   1      25.357   2.828   2.664  0.00  0.00    +0.255 HD
ATOM      6 HH22 ARG A   1      25.412   1.244   1.806  0.00  0.00    +0.255 HD
ATOM      7  NH1 ARG A   1      24.614   2.121  -0.395  0.00  0.00    -0.292 N 
ATOM      8 HH11 ARG A   1      24.806   1.099  -0.380  0.00  0.00    +0.255 HD
ATOM      9 HH12 ARG A   1      24.265   2.572  -1.265  0.00  0.00    +0.255 HD
ENDROOT
BRANCH   1  10
ATOM     10  CD  ARG A   1      24.047   4.892  -0.448  0.00  0.00    +0.174 C 
BRANCH  10  11
ATOM     11  CG  ARG A   1      23.681   6.310  -0.110  0.00  0.00    +0.045 C 
BRANCH  11  12
ATOM     12  CB  ARG A   1      22.848   6.939  -1.201  0.00  0.00    +0.029 C 
BRANCH  12  13
ATOM     13  CA  ARG A   1      22.645   8.447  -1.039  0.00  0.00    +0.133 C 
BRANCH  13  14
ATOM     14  N   ARG A   1      21.937   8.737   0.215  0.00  0.00    -0.239 NA
ATOM     15  H   ARG A   1      21.211   8.069   0.543  0.00  0.00    +0.142 HD
ENDBRANCH  13  14
BRANCH  13  16
ATOM     16  C   ARG A   1      21.880   9.022  -2.228  0.00  0.00    +0.224 C 
ATOM     17  O   ARG A   1      22.477   9.547  -3.156  0.00  0.00    -0.287 OA
ENDBRANCH  13  16
ENDBRANCH  12  13
ENDBRANCH  11  12
ENDBRANCH  10  11
ENDBRANCH   1  10
TORSDOF 6
REMARK  Name = ../refined-set-2016/4jc1/4jc1_pocket.pdb
REMARK  101 active torsions:
REMARK  status: ('A' for Active; 'I' for Inactive)
REMARK    1  A    between atoms: _1  and  _3
REMARK    2  A    between atoms: _3  and  _4
REMARK    3  A    between atoms: _3  and  _6
REMARK    4  A    between atoms: _6  and  _7
REMARK    5  A    between atoms: _7  and  _8
REMARK    6  A    between atoms: _8  and  _9
REMARK    7  A    between atoms: _18  and  _20
REMARK    8  A    between atoms: _20  and  _21
REMARK    9  A    between atoms: _20  and  _23
REMARK   10  A    between atoms: _23  and  _24
REMARK   11  A    between atoms: _27  and  _29
REMARK   12  A    between atoms: _29  and  _30
REMARK   13  A    between atoms: _33  and  _35
REMARK   14  A    between atoms: _35  and  _36
REMARK   15  A    between atoms: _35  and  _38
REMARK   16  A    between atoms: _38  and  _39
REMARK   17  A    between atoms: _42  and  _44
REMARK   18  A    between atoms: _44  and  _45
REMARK   19  A    between atoms: _44  and  _47
REMARK   20  A    between atoms: _47  and  _48
REMARK   21  A    between atoms: _53  and  _55
REMARK   22  A    between atoms: _55  and  _56
REMARK   23  A    between atoms: _55  and  _58
REMARK   24  A    between atoms: _58  and  _59
REMARK   25  A    between atoms: _65  and  _67
REMARK   26  A    between atoms: _67  and  _68
REMARK   27  A    between atoms: _67  and  _70
REMARK   28  A    between atoms: _70  and  _71
REMARK   29  A    between atoms: _76  and  _78
REMARK   30  A    between atoms: _78  and  _79
REMARK   31  A    between atoms: _78  and  _81
REMARK   32  A    between atoms: _81  and  _82
REMARK   33  A    between atoms: _82  and  _83
REMARK   34  A    between atoms: _83  and  _84
REMARK   35  A    between atoms: _93  and  _95
REMARK   36  A    between atoms: _95  and  _96
REMARK   37  A    between atoms: _95  and  _98
REMARK   38  A    between atoms: _98  and  _99
REMARK   39  A    between atoms: _99  and  _100
REMARK   40  A    between atoms: _103  and  _105
REMARK   41  A    between atoms: _105  and  _106
REMARK   42  A    between atoms: _105  and  _108
REMARK   43  A    between atoms: _108  and  _109
REMARK   44  A    between atoms: _114  and  _116
REMARK   45  A    between atoms: _116  and  _117
REMARK   46  A    between atoms: _116  and  _119
REMARK   47  A    between atoms: _122  and  _124
REMARK   48  A    between atoms: _124  and  _125
REMARK   49  A    between atoms: _124  and  _127
REMARK   50  A    between atoms: _130  and  _132
REMARK   51  A    between atoms: _132  and  _133
REMARK   52  A    between atoms: _132  and  _135
REMARK   53  A    between atoms: _137  and  _139
REMARK   54  A    between atoms: _139  and  _140
REMARK   55  A    between atoms: _139  and  _142
REMARK   56  A    between atoms: _142  and  _143
REMARK   57  A    between atoms: _148  and  _150
REMARK   58  A    between atoms: _150  and  _151
REMARK   59  A    between atoms: _150  and  _153
REMARK   60  A    between atoms: _153  and  _154
REMARK   61  A    between atoms: _157  and  _159
REMARK   62  A    between atoms: _159  and  _160
REMARK   63  A    between atoms: _159  and  _162
REMARK   64  A    between atoms: _162  and  _163
REMARK   65  A    between atoms: _163  and  _164
REMARK   66  A    between atoms: _164  and  _165
REMARK   67  A    between atoms: _165  and  _166
REMARK   68  A    between atoms: _170  and  _172
REMARK   69  A    between atoms: _172  and  _173
REMARK   70  A    between atoms: _172  and  _175
REMARK   71  A    between atoms: _175  and  _176
REMARK   72  A    between atoms: _186  and  _188
REMARK   73  A    between atoms: _188  and  _189
REMARK   74  A    between atoms: _191  and  _193
REMARK   75  A    between atoms: _193  and  _194
REMARK   76  A    between atoms: _193  and  _196
REMARK   77  A    between atoms: _196  and  _197
REMARK   78  A    between atoms: _197  and  _198
REMARK   79  A    between atoms: _198  and  _199
REMARK   80  A    between atoms: _208  and  _210
REMARK   81  A    between atoms: _210  and  _211
REMARK   82  A    between atoms: _210  and  _213
REMARK   83  A    between atoms: _213  and  _214
REMARK   84  A    between atoms: _214  and  _215
REMARK   85  A    between atoms: _218  and  _220
REMARK   86  A    between atoms: _220  and  _221
REMARK   87  A    between atoms: _220  and  _223
REMARK   88  A    between atoms: _223  and  _224
REMARK   89  A    between atoms: _224  and  _225
REMARK   90  A    between atoms: _228  and  _230
REMARK   91  A    between atoms: _230  and  _231
REMARK   92  A    between atoms: _230  and  _233
REMARK   93  A    between atoms: _233  and  _234
REMARK   94  A    between atoms: _234  and  _235
REMARK   95  A    between atoms: _235  and  _236
REMARK   96  A    between atoms: _245  and  _247
REMARK   97  A    between atoms: _247  and  _248
REMARK   98  A    between atoms: _247  and  _250
REMARK   99  A    between atoms: _250  and  _251
REMARK  100  A    between atoms: _251  and  _252
REMARK  101  A    between atoms: _252  and  _253
REMARK                            x       y       z     vdW  Elec       q    Type
REMARK                         _______ _______ _______ _____ _____    ______ ____
ROOT
ATOM      1  O   HOH     1      28.248  -4.734   0.452  0.00  0.00    +0.000 OA
ENDROOT
TORSDOF 0
REMARK  Name = ../refined-set-2016/4jc1/4jc1_pocket.pdb
REMARK  101 active torsions:
REMARK  status: ('A' for Active; 'I' for Inactive)
REMARK    1  A    between atoms: _1  and  _3
REMARK    2  A    between atoms: _3  and  _4
REMARK    3  A    between atoms: _3  and  _6
REMARK    4  A    between atoms: _6  and  _7
REMARK    5  A    between atoms: _7  and  _8
REMARK    6  A    between atoms: _8  and  _9
REMARK    7  A    between atoms: _18  and  _20
REMARK    8  A    between atoms: _20  and  _21
REMARK    9  A    between atoms: _20  and  _23
REMARK   10  A    between atoms: _23  and  _24
REMARK   11  A    between atoms: _27  and  _29
REMARK   12  A    between atoms: _29  and  _30
REMARK   13  A    between atoms: _33  and  _35
REMARK   14  A    between atoms: _35  and  _36
REMARK   15  A    between atoms: _35  and  _38
REMARK   16  A    between atoms: _38  and  _39
REMARK   17  A    between atoms: _42  and  _44
REMARK   18  A    between atoms: _44  and  _45
REMARK   19  A    between atoms: _44  and  _47
REMARK   20  A    between atoms: _47  and  _48
REMARK   21  A    between atoms: _53  and  _55
REMARK   22  A    between atoms: _55  and  _56
REMARK   23  A    between atoms: _55  and  _58
REMARK   24  A    between atoms: _58  and  _59
REMARK   25  A    between atoms: _65  and  _67
REMARK   26  A    between atoms: _67  and  _68
REMARK   27  A    between atoms: _67  and  _70
REMARK   28  A    between atoms: _70  and  _71
REMARK   29  A    between atoms: _76  and  _78
REMARK   30  A    between atoms: _78  and  _79
REMARK   31  A    between atoms: _78  and  _81
REMARK   32  A    between atoms: _81  and  _82
REMARK   33  A    between atoms: _82  and  _83
REMARK   34  A    between atoms: _83  and  _84
REMARK   35  A    between atoms: _93  and  _95
REMARK   36  A    between atoms: _95  and  _96
REMARK   37  A    between atoms: _95  and  _98
REMARK   38  A    between atoms: _98  and  _99
REMARK   39  A    between atoms: _99  and  _100
REMARK   40  A    between atoms: _103  and  _105
REMARK   41  A    between atoms: _105  and  _106
REMARK   42  A    between atoms: _105  and  _108
REMARK   43  A    between atoms: _108  and  _109
REMARK   44  A    between atoms: _114  and  _116
REMARK   45  A    between atoms: _116  and  _117
REMARK   46  A    between atoms: _116  and  _119
REMARK   47  A    between atoms: _122  and  _124
REMARK   48  A    between atoms: _124  and  _125
REMARK   49  A    between atoms: _124  and  _127
REMARK   50  A    between atoms: _130  and  _132
REMARK   51  A    between atoms: _132  and  _133
REMARK   52  A    between atoms: _132  and  _135
REMARK   53  A    between atoms: _137  and  _139
REMARK   54  A    between atoms: _139  and  _140
REMARK   55  A    between atoms: _139  and  _142
REMARK   56  A    between atoms: _142  and  _143
REMARK   57  A    between atoms: _148  and  _150
REMARK   58  A    between atoms: _150  and  _151
REMARK   59  A    between atoms: _150  and  _153
REMARK   60  A    between atoms: _153  and  _154
REMARK   61  A    between atoms: _157  and  _159
REMARK   62  A    between atoms: _159  and  _160
REMARK   63  A    between atoms: _159  and  _162
REMARK   64  A    between atoms: _162  and  _163
REMARK   65  A    between atoms: _163  and  _164
REMARK   66  A    between atoms: _164  and  _165
REMARK   67  A    between atoms: _165  and  _166
REMARK   68  A    between atoms: _170  and  _172
REMARK   69  A    between atoms: _172  and  _173
REMARK   70  A    between atoms: _172  and  _175
REMARK   71  A    between atoms: _175  and  _176
REMARK   72  A    between atoms: _186  and  _188
REMARK   73  A    between atoms: _188  and  _189
REMARK   74  A    between atoms: _191  and  _193
REMARK   75  A    between atoms: _193  and  _194
REMARK   76  A    between atoms: _193  and  _196
REMARK   77  A    between atoms: _196  and  _197
REMARK   78  A    between atoms: _197  and  _198
REMARK   79  A    between atoms: _198  and  _199
REMARK   80  A    between atoms: _208  and  _210
REMARK   81  A    between atoms: _210  and  _211
REMARK   82  A    between atoms: _210  and  _213
REMARK   83  A    between atoms: _213  and  _214
REMARK   84  A    between atoms: _214  and  _215
REMARK   85  A    between atoms: _218  and  _220
REMARK   86  A    between atoms: _220  and  _221
REMARK   87  A    between atoms: _220  and  _223
REMARK   88  A    between atoms: _223  and  _224
REMARK   89  A    between atoms: _224  and  _225
REMARK   90  A    between atoms: _228  and  _230
REMARK   91  A    between atoms: _230  and  _231
REMARK   92  A    between atoms: _230  and  _233
REMARK   93  A    between atoms: _233  and  _234
REMARK   94  A    between atoms: _234  and  _235
REMARK   95  A    between atoms: _235  and  _236
REMARK   96  A    between atoms: _245  and  _247
REMARK   97  A    between atoms: _247  and  _248
REMARK   98  A    between atoms: _247  and  _250
REMARK   99  A    between atoms: _250  and  _251
REMARK  100  A    between atoms: _251  and  _252
REMARK  101  A    between atoms: _252  and  _253
REMARK                            x       y       z     vdW  Elec       q    Type
REMARK                         _______ _______ _______ _____ _____    ______ ____
ROOT
ATOM      1  O   HOH     1      12.369  -5.633  -0.336  0.00  0.00    +0.000 OA
ENDROOT
TORSDOF 0
REMARK  Name = ../refined-set-2016/4jc1/4jc1_pocket.pdb
REMARK  101 active torsions:
REMARK  status: ('A' for Active; 'I' for Inactive)
REMARK    1  A    between atoms: _1  and  _3
REMARK    2  A    between atoms: _3  and  _4
REMARK    3  A    between atoms: _3  and  _6
REMARK    4  A    between atoms: _6  and  _7
REMARK    5  A    between atoms: _7  and  _8
REMARK    6  A    between atoms: _8  and  _9
REMARK    7  A    between atoms: _18  and  _20
REMARK    8  A    between atoms: _20  and  _21
REMARK    9  A    between atoms: _20  and  _23
REMARK   10  A    between atoms: _23  and  _24
REMARK   11  A    between atoms: _27  and  _29
REMARK   12  A    between atoms: _29  and  _30
REMARK   13  A    between atoms: _33  and  _35
REMARK   14  A    between atoms: _35  and  _36
REMARK   15  A    between atoms: _35  and  _38
REMARK   16  A    between atoms: _38  and  _39
REMARK   17  A    between atoms: _42  and  _44
REMARK   18  A    between atoms: _44  and  _45
REMARK   19  A    between atoms: _44  and  _47
REMARK   20  A    between atoms: _47  and  _48
REMARK   21  A    between atoms: _53  and  _55
REMARK   22  A    between atoms: _55  and  _56
REMARK   23  A    between atoms: _55  and  _58
REMARK   24  A    between atoms: _58  and  _59
REMARK   25  A    between atoms: _65  and  _67
REMARK   26  A    between atoms: _67  and  _68
REMARK   27  A    between atoms: _67  and  _70
REMARK   28  A    between atoms: _70  and  _71
REMARK   29  A    between atoms: _76  and  _78
REMARK   30  A    between atoms: _78  and  _79
REMARK   31  A    between atoms: _78  and  _81
REMARK   32  A    between atoms: _81  and  _82
REMARK   33  A    between atoms: _82  and  _83
REMARK   34  A    between atoms: _83  and  _84
REMARK   35  A    between atoms: _93  and  _95
REMARK   36  A    between atoms: _95  and  _96
REMARK   37  A    between atoms: _95  and  _98
REMARK   38  A    between atoms: _98  and  _99
REMARK   39  A    between atoms: _99  and  _100
REMARK   40  A    between atoms: _103  and  _105
REMARK   41  A    between atoms: _105  and  _106
REMARK   42  A    between atoms: _105  and  _108
REMARK   43  A    between atoms: _108  and  _109
REMARK   44  A    between atoms: _114  and  _116
REMARK   45  A    between atoms: _116  and  _117
REMARK   46  A    between atoms: _116  and  _119
REMARK   47  A    between atoms: _122  and  _124
REMARK   48  A    between atoms: _124  and  _125
REMARK   49  A    between atoms: _124  and  _127
REMARK   50  A    between atoms: _130  and  _132
REMARK   51  A    between atoms: _132  and  _133
REMARK   52  A    between atoms: _132  and  _135
REMARK   53  A    between atoms: _137  and  _139
REMARK   54  A    between atoms: _139  and  _140
REMARK   55  A    between atoms: _139  and  _142
REMARK   56  A    between atoms: _142  and  _143
REMARK   57  A    between atoms: _148  and  _150
REMARK   58  A    between atoms: _150  and  _151
REMARK   59  A    between atoms: _150  and  _153
REMARK   60  A    between atoms: _153  and  _154
REMARK   61  A    between atoms: _157  and  _159
REMARK   62  A    between atoms: _159  and  _160
REMARK   63  A    between atoms: _159  and  _162
REMARK   64  A    between atoms: _162  and  _163
REMARK   65  A    between atoms: _163  and  _164
REMARK   66  A    between atoms: _164  and  _165
REMARK   67  A    between atoms: _165  and  _166
REMARK   68  A    between atoms: _170  and  _172
REMARK   69  A    between atoms: _172  and  _173
REMARK   70  A    between atoms: _172  and  _175
REMARK   71  A    between atoms: _175  and  _176
REMARK   72  A    between atoms: _186  and  _188
REMARK   73  A    between atoms: _188  and  _189
REMARK   74  A    between atoms: _191  and  _193
REMARK   75  A    between atoms: _193  and  _194
REMARK   76  A    between atoms: _193  and  _196
REMARK   77  A    between atoms: _196  and  _197
REMARK   78  A    between atoms: _197  and  _198
REMARK   79  A    between atoms: _198  and  _199
REMARK   80  A    between atoms: _208  and  _210
REMARK   81  A    between atoms: _210  and  _211
REMARK   82  A    between atoms: _210  and  _213
REMARK   83  A    between atoms: _213  and  _214
REMARK   84  A    between atoms: _214  and  _215
REMARK   85  A    between atoms: _218  and  _220
REMARK   86  A    between atoms: _220  and  _221
REMARK   87  A    between atoms: _220  and  _223
REMARK   88  A    between atoms: _223  and  _224
REMARK   89  A    between atoms: _224  and  _225
REMARK   90  A    between atoms: _228  and  _230
REMARK   91  A    between atoms: _230  and  _231
REMARK   92  A    between atoms: _230  and  _233
REMARK   93  A    between atoms: _233  and  _234
REMARK   94  A    between atoms: _234  and  _235
REMARK   95  A    between atoms: _235  and  _236
REMARK   96  A    between atoms: _245  and  _247
REMARK   97  A    between atoms: _247  and  _248
REMARK   98  A    between atoms: _247  and  _250
REMARK   99  A    between atoms: _250  and  _251
REMARK  100  A    between atoms: _251  and  _252
REMARK  101  A    between atoms: _252  and  _253
REMARK                            x       y       z     vdW  Elec       q    Type
REMARK                         _______ _______ _______ _____ _____    ______ ____
ROOT
ATOM      1  O   HOH     1      23.384  -6.704  -2.234  0.00  0.00    +0.000 OA
ENDROOT
TORSDOF 0
REMARK  Name = ../refined-set-2016/4jc1/4jc1_pocket.pdb
REMARK  101 active torsions:
REMARK  status: ('A' for Active; 'I' for Inactive)
REMARK    1  A    between atoms: _1  and  _3
REMARK    2  A    between atoms: _3  and  _4
REMARK    3  A    between atoms: _3  and  _6
REMARK    4  A    between atoms: _6  and  _7
REMARK    5  A    between atoms: _7  and  _8
REMARK    6  A    between atoms: _8  and  _9
REMARK    7  A    between atoms: _18  and  _20
REMARK    8  A    between atoms: _20  and  _21
REMARK    9  A    between atoms: _20  and  _23
REMARK   10  A    between atoms: _23  and  _24
REMARK   11  A    between atoms: _27  and  _29
REMARK   12  A    between atoms: _29  and  _30
REMARK   13  A    between atoms: _33  and  _35
REMARK   14  A    between atoms: _35  and  _36
REMARK   15  A    between atoms: _35  and  _38
REMARK   16  A    between atoms: _38  and  _39
REMARK   17  A    between atoms: _42  and  _44
REMARK   18  A    between atoms: _44  and  _45
REMARK   19  A    between atoms: _44  and  _47
REMARK   20  A    between atoms: _47  and  _48
REMARK   21  A    between atoms: _53  and  _55
REMARK   22  A    between atoms: _55  and  _56
REMARK   23  A    between atoms: _55  and  _58
REMARK   24  A    between atoms: _58  and  _59
REMARK   25  A    between atoms: _65  and  _67
REMARK   26  A    between atoms: _67  and  _68
REMARK   27  A    between atoms: _67  and  _70
REMARK   28  A    between atoms: _70  and  _71
REMARK   29  A    between atoms: _76  and  _78
REMARK   30  A    between atoms: _78  and  _79
REMARK   31  A    between atoms: _78  and  _81
REMARK   32  A    between atoms: _81  and  _82
REMARK   33  A    between atoms: _82  and  _83
REMARK   34  A    between atoms: _83  and  _84
REMARK   35  A    between atoms: _93  and  _95
REMARK   36  A    between atoms: _95  and  _96
REMARK   37  A    between atoms: _95  and  _98
REMARK   38  A    between atoms: _98  and  _99
REMARK   39  A    between atoms: _99  and  _100
REMARK   40  A    between atoms: _103  and  _105
REMARK   41  A    between atoms: _105  and  _106
REMARK   42  A    between atoms: _105  and  _108
REMARK   43  A    between atoms: _108  and  _109
REMARK   44  A    between atoms: _114  and  _116
REMARK   45  A    between atoms: _116  and  _117
REMARK   46  A    between atoms: _116  and  _119
REMARK   47  A    between atoms: _122  and  _124
REMARK   48  A    between atoms: _124  and  _125
REMARK   49  A    between atoms: _124  and  _127
REMARK   50  A    between atoms: _130  and  _132
REMARK   51  A    between atoms: _132  and  _133
REMARK   52  A    between atoms: _132  and  _135
REMARK   53  A    between atoms: _137  and  _139
REMARK   54  A    between atoms: _139  and  _140
REMARK   55  A    between atoms: _139  and  _142
REMARK   56  A    between atoms: _142  and  _143
REMARK   57  A    between atoms: _148  and  _150
REMARK   58  A    between atoms: _150  and  _151
REMARK   59  A    between atoms: _150  and  _153
REMARK   60  A    between atoms: _153  and  _154
REMARK   61  A    between atoms: _157  and  _159
REMARK   62  A    between atoms: _159  and  _160
REMARK   63  A    between atoms: _159  and  _162
REMARK   64  A    between atoms: _162  and  _163
REMARK   65  A    between atoms: _163  and  _164
REMARK   66  A    between atoms: _164  and  _165
REMARK   67  A    between atoms: _165  and  _166
REMARK   68  A    between atoms: _170  and  _172
REMARK   69  A    between atoms: _172  and  _173
REMARK   70  A    between atoms: _172  and  _175
REMARK   71  A    between atoms: _175  and  _176
REMARK   72  A    between atoms: _186  and  _188
REMARK   73  A    between atoms: _188  and  _189
REMARK   74  A    between atoms: _191  and  _193
REMARK   75  A    between atoms: _193  and  _194
REMARK   76  A    between atoms: _193  and  _196
REMARK   77  A    between atoms: _196  and  _197
REMARK   78  A    between atoms: _197  and  _198
REMARK   79  A    between atoms: _198  and  _199
REMARK   80  A    between atoms: _208  and  _210
REMARK   81  A    between atoms: _210  and  _211
REMARK   82  A    between atoms: _210  and  _213
REMARK   83  A    between atoms: _213  and  _214
REMARK   84  A    between atoms: _214  and  _215
REMARK   85  A    between atoms: _218  and  _220
REMARK   86  A    between atoms: _220  and  _221
REMARK   87  A    between atoms: _220  and  _223
REMARK   88  A    between atoms: _223  and  _224
REMARK   89  A    between atoms: _224  and  _225
REMARK   90  A    between atoms: _228  and  _230
REMARK   91  A    between atoms: _230  and  _231
REMARK   92  A    between atoms: _230  and  _233
REMARK   93  A    between atoms: _233  and  _234
REMARK   94  A    between atoms: _234  and  _235
REMARK   95  A    between atoms: _235  and  _236
REMARK   96  A    between atoms: _245  and  _247
REMARK   97  A    between atoms: _247  and  _248
REMARK   98  A    between atoms: _247  and  _250
REMARK   99  A    between atoms: _250  and  _251
REMARK  100  A    between atoms: _251  and  _252
REMARK  101  A    between atoms: _252  and  _253
REMARK                            x       y       z     vdW  Elec       q    Type
REMARK                         _______ _______ _______ _____ _____    ______ ____
ROOT
ATOM      1  O   HOH     1      29.211  -4.080   3.121  0.00  0.00    +0.000 OA
ENDROOT
TORSDOF 0
REMARK  Name = ../refined-set-2016/4jc1/4jc1_pocket.pdb
REMARK  101 active torsions:
REMARK  status: ('A' for Active; 'I' for Inactive)
REMARK    1  A    between atoms: _1  and  _3
REMARK    2  A    between atoms: _3  and  _4
REMARK    3  A    between atoms: _3  and  _6
REMARK    4  A    between atoms: _6  and  _7
REMARK    5  A    between atoms: _7  and  _8
REMARK    6  A    between atoms: _8  and  _9
REMARK    7  A    between atoms: _18  and  _20
REMARK    8  A    between atoms: _20  and  _21
REMARK    9  A    between atoms: _20  and  _23
REMARK   10  A    between atoms: _23  and  _24
REMARK   11  A    between atoms: _27  and  _29
REMARK   12  A    between atoms: _29  and  _30
REMARK   13  A    between atoms: _33  and  _35
REMARK   14  A    between atoms: _35  and  _36
REMARK   15  A    between atoms: _35  and  _38
REMARK   16  A    between atoms: _38  and  _39
REMARK   17  A    between atoms: _42  and  _44
REMARK   18  A    between atoms: _44  and  _45
REMARK   19  A    between atoms: _44  and  _47
REMARK   20  A    between atoms: _47  and  _48
REMARK   21  A    between atoms: _53  and  _55
REMARK   22  A    between atoms: _55  and  _56
REMARK   23  A    between atoms: _55  and  _58
REMARK   24  A    between atoms: _58  and  _59
REMARK   25  A    between atoms: _65  and  _67
REMARK   26  A    between atoms: _67  and  _68
REMARK   27  A    between atoms: _67  and  _70
REMARK   28  A    between atoms: _70  and  _71
REMARK   29  A    between atoms: _76  and  _78
REMARK   30  A    between atoms: _78  and  _79
REMARK   31  A    between atoms: _78  and  _81
REMARK   32  A    between atoms: _81  and  _82
REMARK   33  A    between atoms: _82  and  _83
REMARK   34  A    between atoms: _83  and  _84
REMARK   35  A    between atoms: _93  and  _95
REMARK   36  A    between atoms: _95  and  _96
REMARK   37  A    between atoms: _95  and  _98
REMARK   38  A    between atoms: _98  and  _99
REMARK   39  A    between atoms: _99  and  _100
REMARK   40  A    between atoms: _103  and  _105
REMARK   41  A    between atoms: _105  and  _106
REMARK   42  A    between atoms: _105  and  _108
REMARK   43  A    between atoms: _108  and  _109
REMARK   44  A    between atoms: _114  and  _116
REMARK   45  A    between atoms: _116  and  _117
REMARK   46  A    between atoms: _116  and  _119
REMARK   47  A    between atoms: _122  and  _124
REMARK   48  A    between atoms: _124  and  _125
REMARK   49  A    between atoms: _124  and  _127
REMARK   50  A    between atoms: _130  and  _132
REMARK   51  A    between atoms: _132  and  _133
REMARK   52  A    between atoms: _132  and  _135
REMARK   53  A    between atoms: _137  and  _139
REMARK   54  A    between atoms: _139  and  _140
REMARK   55  A    between atoms: _139  and  _142
REMARK   56  A    between atoms: _142  and  _143
REMARK   57  A    between atoms: _148  and  _150
REMARK   58  A    between atoms: _150  and  _151
REMARK   59  A    between atoms: _150  and  _153
REMARK   60  A    between atoms: _153  and  _154
REMARK   61  A    between atoms: _157  and  _159
REMARK   62  A    between atoms: _159  and  _160
REMARK   63  A    between atoms: _159  and  _162
REMARK   64  A    between atoms: _162  and  _163
REMARK   65  A    between atoms: _163  and  _164
REMARK   66  A    between atoms: _164  and  _165
REMARK   67  A    between atoms: _165  and  _166
REMARK   68  A    between atoms: _170  and  _172
REMARK   69  A    between atoms: _172  and  _173
REMARK   70  A    between atoms: _172  and  _175
REMARK   71  A    between atoms: _175  and  _176
REMARK   72  A    between atoms: _186  and  _188
REMARK   73  A    between atoms: _188  and  _189
REMARK   74  A    between atoms: _191  and  _193
REMARK   75  A    between atoms: _193  and  _194
REMARK   76  A    between atoms: _193  and  _196
REMARK   77  A    between atoms: _196  and  _197
REMARK   78  A    between atoms: _197  and  _198
REMARK   79  A    between atoms: _198  and  _199
REMARK   80  A    between atoms: _208  and  _210
REMARK   81  A    between atoms: _210  and  _211
REMARK   82  A    between atoms: _210  and  _213
REMARK   83  A    between atoms: _213  and  _214
REMARK   84  A    between atoms: _214  and  _215
REMARK   85  A    between atoms: _218  and  _220
REMARK   86  A    between atoms: _220  and  _221
REMARK   87  A    between atoms: _220  and  _223
REMARK   88  A    between atoms: _223  and  _224
REMARK   89  A    between atoms: _224  and  _225
REMARK   90  A    between atoms: _228  and  _230
REMARK   91  A    between atoms: _230  and  _231
REMARK   92  A    between atoms: _230  and  _233
REMARK   93  A    between atoms: _233  and  _234
REMARK   94  A    between atoms: _234  and  _235
REMARK   95  A    between atoms: _235  and  _236
REMARK   96  A    between atoms: _245  and  _247
REMARK   97  A    between atoms: _247  and  _248
REMARK   98  A    between atoms: _247  and  _250
REMARK   99  A    between atoms: _250  and  _251
REMARK  100  A    between atoms: _251  and  _252
REMARK  101  A    between atoms: _252  and  _253
REMARK                            x       y       z     vdW  Elec       q    Type
REMARK                         _______ _______ _______ _____ _____    ______ ____
ROOT
ATOM      1  O   HOH     1      15.589  -8.587   1.270  0.00  0.00    +0.000 OA
ENDROOT
TORSDOF 0
REMARK  Name = ../refined-set-2016/4jc1/4jc1_pocket.pdb
REMARK  101 active torsions:
REMARK  status: ('A' for Active; 'I' for Inactive)
REMARK    1  A    between atoms: _1  and  _3
REMARK    2  A    between atoms: _3  and  _4
REMARK    3  A    between atoms: _3  and  _6
REMARK    4  A    between atoms: _6  and  _7
REMARK    5  A    between atoms: _7  and  _8
REMARK    6  A    between atoms: _8  and  _9
REMARK    7  A    between atoms: _18  and  _20
REMARK    8  A    between atoms: _20  and  _21
REMARK    9  A    between atoms: _20  and  _23
REMARK   10  A    between atoms: _23  and  _24
REMARK   11  A    between atoms: _27  and  _29
REMARK   12  A    between atoms: _29  and  _30
REMARK   13  A    between atoms: _33  and  _35
REMARK   14  A    between atoms: _35  and  _36
REMARK   15  A    between atoms: _35  and  _38
REMARK   16  A    between atoms: _38  and  _39
REMARK   17  A    between atoms: _42  and  _44
REMARK   18  A    between atoms: _44  and  _45
REMARK   19  A    between atoms: _44  and  _47
REMARK   20  A    between atoms: _47  and  _48
REMARK   21  A    between atoms: _53  and  _55
REMARK   22  A    between atoms: _55  and  _56
REMARK   23  A    between atoms: _55  and  _58
REMARK   24  A    between atoms: _58  and  _59
REMARK   25  A    between atoms: _65  and  _67
REMARK   26  A    between atoms: _67  and  _68
REMARK   27  A    between atoms: _67  and  _70
REMARK   28  A    between atoms: _70  and  _71
REMARK   29  A    between atoms: _76  and  _78
REMARK   30  A    between atoms: _78  and  _79
REMARK   31  A    between atoms: _78  and  _81
REMARK   32  A    between atoms: _81  and  _82
REMARK   33  A    between atoms: _82  and  _83
REMARK   34  A    between atoms: _83  and  _84
REMARK   35  A    between atoms: _93  and  _95
REMARK   36  A    between atoms: _95  and  _96
REMARK   37  A    between atoms: _95  and  _98
REMARK   38  A    between atoms: _98  and  _99
REMARK   39  A    between atoms: _99  and  _100
REMARK   40  A    between atoms: _103  and  _105
REMARK   41  A    between atoms: _105  and  _106
REMARK   42  A    between atoms: _105  and  _108
REMARK   43  A    between atoms: _108  and  _109
REMARK   44  A    between atoms: _114  and  _116
REMARK   45  A    between atoms: _116  and  _117
REMARK   46  A    between atoms: _116  and  _119
REMARK   47  A    between atoms: _122  and  _124
REMARK   48  A    between atoms: _124  and  _125
REMARK   49  A    between atoms: _124  and  _127
REMARK   50  A    between atoms: _130  and  _132
REMARK   51  A    between atoms: _132  and  _133
REMARK   52  A    between atoms: _132  and  _135
REMARK   53  A    between atoms: _137  and  _139
REMARK   54  A    between atoms: _139  and  _140
REMARK   55  A    between atoms: _139  and  _142
REMARK   56  A    between atoms: _142  and  _143
REMARK   57  A    between atoms: _148  and  _150
REMARK   58  A    between atoms: _150  and  _151
REMARK   59  A    between atoms: _150  and  _153
REMARK   60  A    between atoms: _153  and  _154
REMARK   61  A    between atoms: _157  and  _159
REMARK   62  A    between atoms: _159  and  _160
REMARK   63  A    between atoms: _159  and  _162
REMARK   64  A    between atoms: _162  and  _163
REMARK   65  A    between atoms: _163  and  _164
REMARK   66  A    between atoms: _164  and  _165
REMARK   67  A    between atoms: _165  and  _166
REMARK   68  A    between atoms: _170  and  _172
REMARK   69  A    between atoms: _172  and  _173
REMARK   70  A    between atoms: _172  and  _175
REMARK   71  A    between atoms: _175  and  _176
REMARK   72  A    between atoms: _186  and  _188
REMARK   73  A    between atoms: _188  and  _189
REMARK   74  A    between atoms: _191  and  _193
REMARK   75  A    between atoms: _193  and  _194
REMARK   76  A    between atoms: _193  and  _196
REMARK   77  A    between atoms: _196  and  _197
REMARK   78  A    between atoms: _197  and  _198
REMARK   79  A    between atoms: _198  and  _199
REMARK   80  A    between atoms: _208  and  _210
REMARK   81  A    between atoms: _210  and  _211
REMARK   82  A    between atoms: _210  and  _213
REMARK   83  A    between atoms: _213  and  _214
REMARK   84  A    between atoms: _214  and  _215
REMARK   85  A    between atoms: _218  and  _220
REMARK   86  A    between atoms: _220  and  _221
REMARK   87  A    between atoms: _220  and  _223
REMARK   88  A    between atoms: _223  and  _224
REMARK   89  A    between atoms: _224  and  _225
REMARK   90  A    between atoms: _228  and  _230
REMARK   91  A    between atoms: _230  and  _231
REMARK   92  A    between atoms: _230  and  _233
REMARK   93  A    between atoms: _233  and  _234
REMARK   94  A    between atoms: _234  and  _235
REMARK   95  A    between atoms: _235  and  _236
REMARK   96  A    between atoms: _245  and  _247
REMARK   97  A    between atoms: _247  and  _248
REMARK   98  A    between atoms: _247  and  _250
REMARK   99  A    between atoms: _250  and  _251
REMARK  100  A    between atoms: _251  and  _252
REMARK  101  A    between atoms: _252  and  _253
REMARK                            x       y       z     vdW  Elec       q    Type
REMARK                         _______ _______ _______ _____ _____    ______ ____
ROOT
ATOM      1  O   HOH     1      22.736  -5.910  -7.500  0.00  0.00    +0.000 OA
ENDROOT
TORSDOF 0
REMARK  Name = ../refined-set-2016/4jc1/4jc1_pocket.pdb
REMARK  101 active torsions:
REMARK  status: ('A' for Active; 'I' for Inactive)
REMARK    1  A    between atoms: _1  and  _3
REMARK    2  A    between atoms: _3  and  _4
REMARK    3  A    between atoms: _3  and  _6
REMARK    4  A    between atoms: _6  and  _7
REMARK    5  A    between atoms: _7  and  _8
REMARK    6  A    between atoms: _8  and  _9
REMARK    7  A    between atoms: _18  and  _20
REMARK    8  A    between atoms: _20  and  _21
REMARK    9  A    between atoms: _20  and  _23
REMARK   10  A    between atoms: _23  and  _24
REMARK   11  A    between atoms: _27  and  _29
REMARK   12  A    between atoms: _29  and  _30
REMARK   13  A    between atoms: _33  and  _35
REMARK   14  A    between atoms: _35  and  _36
REMARK   15  A    between atoms: _35  and  _38
REMARK   16  A    between atoms: _38  and  _39
REMARK   17  A    between atoms: _42  and  _44
REMARK   18  A    between atoms: _44  and  _45
REMARK   19  A    between atoms: _44  and  _47
REMARK   20  A    between atoms: _47  and  _48
REMARK   21  A    between atoms: _53  and  _55
REMARK   22  A    between atoms: _55  and  _56
REMARK   23  A    between atoms: _55  and  _58
REMARK   24  A    between atoms: _58  and  _59
REMARK   25  A    between atoms: _65  and  _67
REMARK   26  A    between atoms: _67  and  _68
REMARK   27  A    between atoms: _67  and  _70
REMARK   28  A    between atoms: _70  and  _71
REMARK   29  A    between atoms: _76  and  _78
REMARK   30  A    between atoms: _78  and  _79
REMARK   31  A    between atoms: _78  and  _81
REMARK   32  A    between atoms: _81  and  _82
REMARK   33  A    between atoms: _82  and  _83
REMARK   34  A    between atoms: _83  and  _84
REMARK   35  A    between atoms: _93  and  _95
REMARK   36  A    between atoms: _95  and  _96
REMARK   37  A    between atoms: _95  and  _98
REMARK   38  A    between atoms: _98  and  _99
REMARK   39  A    between atoms: _99  and  _100
REMARK   40  A    between atoms: _103  and  _105
REMARK   41  A    between atoms: _105  and  _106
REMARK   42  A    between atoms: _105  and  _108
REMARK   43  A    between atoms: _108  and  _109
REMARK   44  A    between atoms: _114  and  _116
REMARK   45  A    between atoms: _116  and  _117
REMARK   46  A    between atoms: _116  and  _119
REMARK   47  A    between atoms: _122  and  _124
REMARK   48  A    between atoms: _124  and  _125
REMARK   49  A    between atoms: _124  and  _127
REMARK   50  A    between atoms: _130  and  _132
REMARK   51  A    between atoms: _132  and  _133
REMARK   52  A    between atoms: _132  and  _135
REMARK   53  A    between atoms: _137  and  _139
REMARK   54  A    between atoms: _139  and  _140
REMARK   55  A    between atoms: _139  and  _142
REMARK   56  A    between atoms: _142  and  _143
REMARK   57  A    between atoms: _148  and  _150
REMARK   58  A    between atoms: _150  and  _151
REMARK   59  A    between atoms: _150  and  _153
REMARK   60  A    between atoms: _153  and  _154
REMARK   61  A    between atoms: _157  and  _159
REMARK   62  A    between atoms: _159  and  _160
REMARK   63  A    between atoms: _159  and  _162
REMARK   64  A    between atoms: _162  and  _163
REMARK   65  A    between atoms: _163  and  _164
REMARK   66  A    between atoms: _164  and  _165
REMARK   67  A    between atoms: _165  and  _166
REMARK   68  A    between atoms: _170  and  _172
REMARK   69  A    between atoms: _172  and  _173
REMARK   70  A    between atoms: _172  and  _175
REMARK   71  A    between atoms: _175  and  _176
REMARK   72  A    between atoms: _186  and  _188
REMARK   73  A    between atoms: _188  and  _189
REMARK   74  A    between atoms: _191  and  _193
REMARK   75  A    between atoms: _193  and  _194
REMARK   76  A    between atoms: _193  and  _196
REMARK   77  A    between atoms: _196  and  _197
REMARK   78  A    between atoms: _197  and  _198
REMARK   79  A    between atoms: _198  and  _199
REMARK   80  A    between atoms: _208  and  _210
REMARK   81  A    between atoms: _210  and  _211
REMARK   82  A    between atoms: _210  and  _213
REMARK   83  A    between atoms: _213  and  _214
REMARK   84  A    between atoms: _214  and  _215
REMARK   85  A    between atoms: _218  and  _220
REMARK   86  A    between atoms: _220  and  _221
REMARK   87  A    between atoms: _220  and  _223
REMARK   88  A    between atoms: _223  and  _224
REMARK   89  A    between atoms: _224  and  _225
REMARK   90  A    between atoms: _228  and  _230
REMARK   91  A    between atoms: _230  and  _231
REMARK   92  A    between atoms: _230  and  _233
REMARK   93  A    between atoms: _233  and  _234
REMARK   94  A    between atoms: _234  and  _235
REMARK   95  A    between atoms: _235  and  _236
REMARK   96  A    between atoms: _245  and  _247
REMARK   97  A    between atoms: _247  and  _248
REMARK   98  A    between atoms: _247  and  _250
REMARK   99  A    between atoms: _250  and  _251
REMARK  100  A    between atoms: _251  and  _252
REMARK  101  A    between atoms: _252  and  _253
REMARK                            x       y       z     vdW  Elec       q    Type
REMARK                         _______ _______ _______ _____ _____    ______ ____
ROOT
ATOM      1  O   HOH     1      13.670  -3.750  -2.697  0.00  0.00    +0.000 OA
ENDROOT
TORSDOF 0
REMARK  Name = ../refined-set-2016/4jc1/4jc1_pocket.pdb
REMARK  101 active torsions:
REMARK  status: ('A' for Active; 'I' for Inactive)
REMARK    1  A    between atoms: _1  and  _3
REMARK    2  A    between atoms: _3  and  _4
REMARK    3  A    between atoms: _3  and  _6
REMARK    4  A    between atoms: _6  and  _7
REMARK    5  A    between atoms: _7  and  _8
REMARK    6  A    between atoms: _8  and  _9
REMARK    7  A    between atoms: _18  and  _20
REMARK    8  A    between atoms: _20  and  _21
REMARK    9  A    between atoms: _20  and  _23
REMARK   10  A    between atoms: _23  and  _24
REMARK   11  A    between atoms: _27  and  _29
REMARK   12  A    between atoms: _29  and  _30
REMARK   13  A    between atoms: _33  and  _35
REMARK   14  A    between atoms: _35  and  _36
REMARK   15  A    between atoms: _35  and  _38
REMARK   16  A    between atoms: _38  and  _39
REMARK   17  A    between atoms: _42  and  _44
REMARK   18  A    between atoms: _44  and  _45
REMARK   19  A    between atoms: _44  and  _47
REMARK   20  A    between atoms: _47  and  _48
REMARK   21  A    between atoms: _53  and  _55
REMARK   22  A    between atoms: _55  and  _56
REMARK   23  A    between atoms: _55  and  _58
REMARK   24  A    between atoms: _58  and  _59
REMARK   25  A    between atoms: _65  and  _67
REMARK   26  A    between atoms: _67  and  _68
REMARK   27  A    between atoms: _67  and  _70
REMARK   28  A    between atoms: _70  and  _71
REMARK   29  A    between atoms: _76  and  _78
REMARK   30  A    between atoms: _78  and  _79
REMARK   31  A    between atoms: _78  and  _81
REMARK   32  A    between atoms: _81  and  _82
REMARK   33  A    between atoms: _82  and  _83
REMARK   34  A    between atoms: _83  and  _84
REMARK   35  A    between atoms: _93  and  _95
REMARK   36  A    between atoms: _95  and  _96
REMARK   37  A    between atoms: _95  and  _98
REMARK   38  A    between atoms: _98  and  _99
REMARK   39  A    between atoms: _99  and  _100
REMARK   40  A    between atoms: _103  and  _105
REMARK   41  A    between atoms: _105  and  _106
REMARK   42  A    between atoms: _105  and  _108
REMARK   43  A    between atoms: _108  and  _109
REMARK   44  A    between atoms: _114  and  _116
REMARK   45  A    between atoms: _116  and  _117
REMARK   46  A    between atoms: _116  and  _119
REMARK   47  A    between atoms: _122  and  _124
REMARK   48  A    between atoms: _124  and  _125
REMARK   49  A    between atoms: _124  and  _127
REMARK   50  A    between atoms: _130  and  _132
REMARK   51  A    between atoms: _132  and  _133
REMARK   52  A    between atoms: _132  and  _135
REMARK   53  A    between atoms: _137  and  _139
REMARK   54  A    between atoms: _139  and  _140
REMARK   55  A    between atoms: _139  and  _142
REMARK   56  A    between atoms: _142  and  _143
REMARK   57  A    between atoms: _148  and  _150
REMARK   58  A    between atoms: _150  and  _151
REMARK   59  A    between atoms: _150  and  _153
REMARK   60  A    between atoms: _153  and  _154
REMARK   61  A    between atoms: _157  and  _159
REMARK   62  A    between atoms: _159  and  _160
REMARK   63  A    between atoms: _159  and  _162
REMARK   64  A    between atoms: _162  and  _163
REMARK   65  A    between atoms: _163  and  _164
REMARK   66  A    between atoms: _164  and  _165
REMARK   67  A    between atoms: _165  and  _166
REMARK   68  A    between atoms: _170  and  _172
REMARK   69  A    between atoms: _172  and  _173
REMARK   70  A    between atoms: _172  and  _175
REMARK   71  A    between atoms: _175  and  _176
REMARK   72  A    between atoms: _186  and  _188
REMARK   73  A    between atoms: _188  and  _189
REMARK   74  A    between atoms: _191  and  _193
REMARK   75  A    between atoms: _193  and  _194
REMARK   76  A    between atoms: _193  and  _196
REMARK   77  A    between atoms: _196  and  _197
REMARK   78  A    between atoms: _197  and  _198
REMARK   79  A    between atoms: _198  and  _199
REMARK   80  A    between atoms: _208  and  _210
REMARK   81  A    between atoms: _210  and  _211
REMARK   82  A    between atoms: _210  and  _213
REMARK   83  A    between atoms: _213  and  _214
REMARK   84  A    between atoms: _214  and  _215
REMARK   85  A    between atoms: _218  and  _220
REMARK   86  A    between atoms: _220  and  _221
REMARK   87  A    between atoms: _220  and  _223
REMARK   88  A    between atoms: _223  and  _224
REMARK   89  A    between atoms: _224  and  _225
REMARK   90  A    between atoms: _228  and  _230
REMARK   91  A    between atoms: _230  and  _231
REMARK   92  A    between atoms: _230  and  _233
REMARK   93  A    between atoms: _233  and  _234
REMARK   94  A    between atoms: _234  and  _235
REMARK   95  A    between atoms: _235  and  _236
REMARK   96  A    between atoms: _245  and  _247
REMARK   97  A    between atoms: _247  and  _248
REMARK   98  A    between atoms: _247  and  _250
REMARK   99  A    between atoms: _250  and  _251
REMARK  100  A    between atoms: _251  and  _252
REMARK  101  A    between atoms: _252  and  _253
REMARK                            x       y       z     vdW  Elec       q    Type
REMARK                         _______ _______ _______ _____ _____    ______ ____
ROOT
ATOM      1  O   HOH     1      14.438  -6.572  -2.053  0.00  0.00    +0.000 OA
ENDROOT
TORSDOF 0
REMARK  Name = ../refined-set-2016/4jc1/4jc1_pocket.pdb
REMARK  101 active torsions:
REMARK  status: ('A' for Active; 'I' for Inactive)
REMARK    1  A    between atoms: _1  and  _3
REMARK    2  A    between atoms: _3  and  _4
REMARK    3  A    between atoms: _3  and  _6
REMARK    4  A    between atoms: _6  and  _7
REMARK    5  A    between atoms: _7  and  _8
REMARK    6  A    between atoms: _8  and  _9
REMARK    7  A    between atoms: _18  and  _20
REMARK    8  A    between atoms: _20  and  _21
REMARK    9  A    between atoms: _20  and  _23
REMARK   10  A    between atoms: _23  and  _24
REMARK   11  A    between atoms: _27  and  _29
REMARK   12  A    between atoms: _29  and  _30
REMARK   13  A    between atoms: _33  and  _35
REMARK   14  A    between atoms: _35  and  _36
REMARK   15  A    between atoms: _35  and  _38
REMARK   16  A    between atoms: _38  and  _39
REMARK   17  A    between atoms: _42  and  _44
REMARK   18  A    between atoms: _44  and  _45
REMARK   19  A    between atoms: _44  and  _47
REMARK   20  A    between atoms: _47  and  _48
REMARK   21  A    between atoms: _53  and  _55
REMARK   22  A    between atoms: _55  and  _56
REMARK   23  A    between atoms: _55  and  _58
REMARK   24  A    between atoms: _58  and  _59
REMARK   25  A    between atoms: _65  and  _67
REMARK   26  A    between atoms: _67  and  _68
REMARK   27  A    between atoms: _67  and  _70
REMARK   28  A    between atoms: _70  and  _71
REMARK   29  A    between atoms: _76  and  _78
REMARK   30  A    between atoms: _78  and  _79
REMARK   31  A    between atoms: _78  and  _81
REMARK   32  A    between atoms: _81  and  _82
REMARK   33  A    between atoms: _82  and  _83
REMARK   34  A    between atoms: _83  and  _84
REMARK   35  A    between atoms: _93  and  _95
REMARK   36  A    between atoms: _95  and  _96
REMARK   37  A    between atoms: _95  and  _98
REMARK   38  A    between atoms: _98  and  _99
REMARK   39  A    between atoms: _99  and  _100
REMARK   40  A    between atoms: _103  and  _105
REMARK   41  A    between atoms: _105  and  _106
REMARK   42  A    between atoms: _105  and  _108
REMARK   43  A    between atoms: _108  and  _109
REMARK   44  A    between atoms: _114  and  _116
REMARK   45  A    between atoms: _116  and  _117
REMARK   46  A    between atoms: _116  and  _119
REMARK   47  A    between atoms: _122  and  _124
REMARK   48  A    between atoms: _124  and  _125
REMARK   49  A    between atoms: _124  and  _127
REMARK   50  A    between atoms: _130  and  _132
REMARK   51  A    between atoms: _132  and  _133
REMARK   52  A    between atoms: _132  and  _135
REMARK   53  A    between atoms: _137  and  _139
REMARK   54  A    between atoms: _139  and  _140
REMARK   55  A    between atoms: _139  and  _142
REMARK   56  A    between atoms: _142  and  _143
REMARK   57  A    between atoms: _148  and  _150
REMARK   58  A    between atoms: _150  and  _151
REMARK   59  A    between atoms: _150  and  _153
REMARK   60  A    between atoms: _153  and  _154
REMARK   61  A    between atoms: _157  and  _159
REMARK   62  A    between atoms: _159  and  _160
REMARK   63  A    between atoms: _159  and  _162
REMARK   64  A    between atoms: _162  and  _163
REMARK   65  A    between atoms: _163  and  _164
REMARK   66  A    between atoms: _164  and  _165
REMARK   67  A    between atoms: _165  and  _166
REMARK   68  A    between atoms: _170  and  _172
REMARK   69  A    between atoms: _172  and  _173
REMARK   70  A    between atoms: _172  and  _175
REMARK   71  A    between atoms: _175  and  _176
REMARK   72  A    between atoms: _186  and  _188
REMARK   73  A    between atoms: _188  and  _189
REMARK   74  A    between atoms: _191  and  _193
REMARK   75  A    between atoms: _193  and  _194
REMARK   76  A    between atoms: _193  and  _196
REMARK   77  A    between atoms: _196  and  _197
REMARK   78  A    between atoms: _197  and  _198
REMARK   79  A    between atoms: _198  and  _199
REMARK   80  A    between atoms: _208  and  _210
REMARK   81  A    between atoms: _210  and  _211
REMARK   82  A    between atoms: _210  and  _213
REMARK   83  A    between atoms: _213  and  _214
REMARK   84  A    between atoms: _214  and  _215
REMARK   85  A    between atoms: _218  and  _220
REMARK   86  A    between atoms: _220  and  _221
REMARK   87  A    between atoms: _220  and  _223
REMARK   88  A    between atoms: _223  and  _224
REMARK   89  A    between atoms: _224  and  _225
REMARK   90  A    between atoms: _228  and  _230
REMARK   91  A    between atoms: _230  and  _231
REMARK   92  A    between atoms: _230  and  _233
REMARK   93  A    between atoms: _233  and  _234
REMARK   94  A    between atoms: _234  and  _235
REMARK   95  A    between atoms: _235  and  _236
REMARK   96  A    between atoms: _245  and  _247
REMARK   97  A    between atoms: _247  and  _248
REMARK   98  A    between atoms: _247  and  _250
REMARK   99  A    between atoms: _250  and  _251
REMARK  100  A    between atoms: _251  and  _252
REMARK  101  A    between atoms: _252  and  _253
REMARK                            x       y       z     vdW  Elec       q    Type
REMARK                         _______ _______ _______ _____ _____    ______ ____
ROOT
ATOM      1  O   HOH     1      16.558  -7.223  -5.552  0.00  0.00    +0.000 OA
ENDROOT
TORSDOF 0
REMARK  Name = ../refined-set-2016/4jc1/4jc1_pocket.pdb
REMARK  101 active torsions:
REMARK  status: ('A' for Active; 'I' for Inactive)
REMARK    1  A    between atoms: _1  and  _3
REMARK    2  A    between atoms: _3  and  _4
REMARK    3  A    between atoms: _3  and  _6
REMARK    4  A    between atoms: _6  and  _7
REMARK    5  A    between atoms: _7  and  _8
REMARK    6  A    between atoms: _8  and  _9
REMARK    7  A    between atoms: _18  and  _20
REMARK    8  A    between atoms: _20  and  _21
REMARK    9  A    between atoms: _20  and  _23
REMARK   10  A    between atoms: _23  and  _24
REMARK   11  A    between atoms: _27  and  _29
REMARK   12  A    between atoms: _29  and  _30
REMARK   13  A    between atoms: _33  and  _35
REMARK   14  A    between atoms: _35  and  _36
REMARK   15  A    between atoms: _35  and  _38
REMARK   16  A    between atoms: _38  and  _39
REMARK   17  A    between atoms: _42  and  _44
REMARK   18  A    between atoms: _44  and  _45
REMARK   19  A    between atoms: _44  and  _47
REMARK   20  A    between atoms: _47  and  _48
REMARK   21  A    between atoms: _53  and  _55
REMARK   22  A    between atoms: _55  and  _56
REMARK   23  A    between atoms: _55  and  _58
REMARK   24  A    between atoms: _58  and  _59
REMARK   25  A    between atoms: _65  and  _67
REMARK   26  A    between atoms: _67  and  _68
REMARK   27  A    between atoms: _67  and  _70
REMARK   28  A    between atoms: _70  and  _71
REMARK   29  A    between atoms: _76  and  _78
REMARK   30  A    between atoms: _78  and  _79
REMARK   31  A    between atoms: _78  and  _81
REMARK   32  A    between atoms: _81  and  _82
REMARK   33  A    between atoms: _82  and  _83
REMARK   34  A    between atoms: _83  and  _84
REMARK   35  A    between atoms: _93  and  _95
REMARK   36  A    between atoms: _95  and  _96
REMARK   37  A    between atoms: _95  and  _98
REMARK   38  A    between atoms: _98  and  _99
REMARK   39  A    between atoms: _99  and  _100
REMARK   40  A    between atoms: _103  and  _105
REMARK   41  A    between atoms: _105  and  _106
REMARK   42  A    between atoms: _105  and  _108
REMARK   43  A    between atoms: _108  and  _109
REMARK   44  A    between atoms: _114  and  _116
REMARK   45  A    between atoms: _116  and  _117
REMARK   46  A    between atoms: _116  and  _119
REMARK   47  A    between atoms: _122  and  _124
REMARK   48  A    between atoms: _124  and  _125
REMARK   49  A    between atoms: _124  and  _127
REMARK   50  A    between atoms: _130  and  _132
REMARK   51  A    between atoms: _132  and  _133
REMARK   52  A    between atoms: _132  and  _135
REMARK   53  A    between atoms: _137  and  _139
REMARK   54  A    between atoms: _139  and  _140
REMARK   55  A    between atoms: _139  and  _142
REMARK   56  A    between atoms: _142  and  _143
REMARK   57  A    between atoms: _148  and  _150
REMARK   58  A    between atoms: _150  and  _151
REMARK   59  A    between atoms: _150  and  _153
REMARK   60  A    between atoms: _153  and  _154
REMARK   61  A    between atoms: _157  and  _159
REMARK   62  A    between atoms: _159  and  _160
REMARK   63  A    between atoms: _159  and  _162
REMARK   64  A    between atoms: _162  and  _163
REMARK   65  A    between atoms: _163  and  _164
REMARK   66  A    between atoms: _164  and  _165
REMARK   67  A    between atoms: _165  and  _166
REMARK   68  A    between atoms: _170  and  _172
REMARK   69  A    between atoms: _172  and  _173
REMARK   70  A    between atoms: _172  and  _175
REMARK   71  A    between atoms: _175  and  _176
REMARK   72  A    between atoms: _186  and  _188
REMARK   73  A    between atoms: _188  and  _189
REMARK   74  A    between atoms: _191  and  _193
REMARK   75  A    between atoms: _193  and  _194
REMARK   76  A    between atoms: _193  and  _196
REMARK   77  A    between atoms: _196  and  _197
REMARK   78  A    between atoms: _197  and  _198
REMARK   79  A    between atoms: _198  and  _199
REMARK   80  A    between atoms: _208  and  _210
REMARK   81  A    between atoms: _210  and  _211
REMARK   82  A    between atoms: _210  and  _213
REMARK   83  A    between atoms: _213  and  _214
REMARK   84  A    between atoms: _214  and  _215
REMARK   85  A    between atoms: _218  and  _220
REMARK   86  A    between atoms: _220  and  _221
REMARK   87  A    between atoms: _220  and  _223
REMARK   88  A    between atoms: _223  and  _224
REMARK   89  A    between atoms: _224  and  _225
REMARK   90  A    between atoms: _228  and  _230
REMARK   91  A    between atoms: _230  and  _231
REMARK   92  A    between atoms: _230  and  _233
REMARK   93  A    between atoms: _233  and  _234
REMARK   94  A    between atoms: _234  and  _235
REMARK   95  A    between atoms: _235  and  _236
REMARK   96  A    between atoms: _245  and  _247
REMARK   97  A    between atoms: _247  and  _248
REMARK   98  A    between atoms: _247  and  _250
REMARK   99  A    between atoms: _250  and  _251
REMARK  100  A    between atoms: _251  and  _252
REMARK  101  A    between atoms: _252  and  _253
REMARK                            x       y       z     vdW  Elec       q    Type
REMARK                         _______ _______ _______ _____ _____    ______ ____
ROOT
ATOM      1  O   HOH     1      25.007 -12.607   3.017  0.00  0.00    +0.000 OA
ENDROOT
TORSDOF 0
REMARK  Name = ../refined-set-2016/4jc1/4jc1_pocket.pdb
REMARK  101 active torsions:
REMARK  status: ('A' for Active; 'I' for Inactive)
REMARK    1  A    between atoms: _1  and  _3
REMARK    2  A    between atoms: _3  and  _4
REMARK    3  A    between atoms: _3  and  _6
REMARK    4  A    between atoms: _6  and  _7
REMARK    5  A    between atoms: _7  and  _8
REMARK    6  A    between atoms: _8  and  _9
REMARK    7  A    between atoms: _18  and  _20
REMARK    8  A    between atoms: _20  and  _21
REMARK    9  A    between atoms: _20  and  _23
REMARK   10  A    between atoms: _23  and  _24
REMARK   11  A    between atoms: _27  and  _29
REMARK   12  A    between atoms: _29  and  _30
REMARK   13  A    between atoms: _33  and  _35
REMARK   14  A    between atoms: _35  and  _36
REMARK   15  A    between atoms: _35  and  _38
REMARK   16  A    between atoms: _38  and  _39
REMARK   17  A    between atoms: _42  and  _44
REMARK   18  A    between atoms: _44  and  _45
REMARK   19  A    between atoms: _44  and  _47
REMARK   20  A    between atoms: _47  and  _48
REMARK   21  A    between atoms: _53  and  _55
REMARK   22  A    between atoms: _55  and  _56
REMARK   23  A    between atoms: _55  and  _58
REMARK   24  A    between atoms: _58  and  _59
REMARK   25  A    between atoms: _65  and  _67
REMARK   26  A    between atoms: _67  and  _68
REMARK   27  A    between atoms: _67  and  _70
REMARK   28  A    between atoms: _70  and  _71
REMARK   29  A    between atoms: _76  and  _78
REMARK   30  A    between atoms: _78  and  _79
REMARK   31  A    between atoms: _78  and  _81
REMARK   32  A    between atoms: _81  and  _82
REMARK   33  A    between atoms: _82  and  _83
REMARK   34  A    between atoms: _83  and  _84
REMARK   35  A    between atoms: _93  and  _95
REMARK   36  A    between atoms: _95  and  _96
REMARK   37  A    between atoms: _95  and  _98
REMARK   38  A    between atoms: _98  and  _99
REMARK   39  A    between atoms: _99  and  _100
REMARK   40  A    between atoms: _103  and  _105
REMARK   41  A    between atoms: _105  and  _106
REMARK   42  A    between atoms: _105  and  _108
REMARK   43  A    between atoms: _108  and  _109
REMARK   44  A    between atoms: _114  and  _116
REMARK   45  A    between atoms: _116  and  _117
REMARK   46  A    between atoms: _116  and  _119
REMARK   47  A    between atoms: _122  and  _124
REMARK   48  A    between atoms: _124  and  _125
REMARK   49  A    between atoms: _124  and  _127
REMARK   50  A    between atoms: _130  and  _132
REMARK   51  A    between atoms: _132  and  _133
REMARK   52  A    between atoms: _132  and  _135
REMARK   53  A    between atoms: _137  and  _139
REMARK   54  A    between atoms: _139  and  _140
REMARK   55  A    between atoms: _139  and  _142
REMARK   56  A    between atoms: _142  and  _143
REMARK   57  A    between atoms: _148  and  _150
REMARK   58  A    between atoms: _150  and  _151
REMARK   59  A    between atoms: _150  and  _153
REMARK   60  A    between atoms: _153  and  _154
REMARK   61  A    between atoms: _157  and  _159
REMARK   62  A    between atoms: _159  and  _160
REMARK   63  A    between atoms: _159  and  _162
REMARK   64  A    between atoms: _162  and  _163
REMARK   65  A    between atoms: _163  and  _164
REMARK   66  A    between atoms: _164  and  _165
REMARK   67  A    between atoms: _165  and  _166
REMARK   68  A    between atoms: _170  and  _172
REMARK   69  A    between atoms: _172  and  _173
REMARK   70  A    between atoms: _172  and  _175
REMARK   71  A    between atoms: _175  and  _176
REMARK   72  A    between atoms: _186  and  _188
REMARK   73  A    between atoms: _188  and  _189
REMARK   74  A    between atoms: _191  and  _193
REMARK   75  A    between atoms: _193  and  _194
REMARK   76  A    between atoms: _193  and  _196
REMARK   77  A    between atoms: _196  and  _197
REMARK   78  A    between atoms: _197  and  _198
REMARK   79  A    between atoms: _198  and  _199
REMARK   80  A    between atoms: _208  and  _210
REMARK   81  A    between atoms: _210  and  _211
REMARK   82  A    between atoms: _210  and  _213
REMARK   83  A    between atoms: _213  and  _214
REMARK   84  A    between atoms: _214  and  _215
REMARK   85  A    between atoms: _218  and  _220
REMARK   86  A    between atoms: _220  and  _221
REMARK   87  A    between atoms: _220  and  _223
REMARK   88  A    between atoms: _223  and  _224
REMARK   89  A    between atoms: _224  and  _225
REMARK   90  A    between atoms: _228  and  _230
REMARK   91  A    between atoms: _230  and  _231
REMARK   92  A    between atoms: _230  and  _233
REMARK   93  A    between atoms: _233  and  _234
REMARK   94  A    between atoms: _234  and  _235
REMARK   95  A    between atoms: _235  and  _236
REMARK   96  A    between atoms: _245  and  _247
REMARK   97  A    between atoms: _247  and  _248
REMARK   98  A    between atoms: _247  and  _250
REMARK   99  A    between atoms: _250  and  _251
REMARK  100  A    between atoms: _251  and  _252
REMARK  101  A    between atoms: _252  and  _253
REMARK                            x       y       z     vdW  Elec       q    Type
REMARK                         _______ _______ _______ _____ _____    ______ ____
ROOT
ATOM      1  O   HOH     1      22.539 -13.518   2.573  0.00  0.00    +0.000 OA
ENDROOT
TORSDOF 0
REMARK  Name = ../refined-set-2016/4jc1/4jc1_pocket.pdb
REMARK  101 active torsions:
REMARK  status: ('A' for Active; 'I' for Inactive)
REMARK    1  A    between atoms: _1  and  _3
REMARK    2  A    between atoms: _3  and  _4
REMARK    3  A    between atoms: _3  and  _6
REMARK    4  A    between atoms: _6  and  _7
REMARK    5  A    between atoms: _7  and  _8
REMARK    6  A    between atoms: _8  and  _9
REMARK    7  A    between atoms: _18  and  _20
REMARK    8  A    between atoms: _20  and  _21
REMARK    9  A    between atoms: _20  and  _23
REMARK   10  A    between atoms: _23  and  _24
REMARK   11  A    between atoms: _27  and  _29
REMARK   12  A    between atoms: _29  and  _30
REMARK   13  A    between atoms: _33  and  _35
REMARK   14  A    between atoms: _35  and  _36
REMARK   15  A    between atoms: _35  and  _38
REMARK   16  A    between atoms: _38  and  _39
REMARK   17  A    between atoms: _42  and  _44
REMARK   18  A    between atoms: _44  and  _45
REMARK   19  A    between atoms: _44  and  _47
REMARK   20  A    between atoms: _47  and  _48
REMARK   21  A    between atoms: _53  and  _55
REMARK   22  A    between atoms: _55  and  _56
REMARK   23  A    between atoms: _55  and  _58
REMARK   24  A    between atoms: _58  and  _59
REMARK   25  A    between atoms: _65  and  _67
REMARK   26  A    between atoms: _67  and  _68
REMARK   27  A    between atoms: _67  and  _70
REMARK   28  A    between atoms: _70  and  _71
REMARK   29  A    between atoms: _76  and  _78
REMARK   30  A    between atoms: _78  and  _79
REMARK   31  A    between atoms: _78  and  _81
REMARK   32  A    between atoms: _81  and  _82
REMARK   33  A    between atoms: _82  and  _83
REMARK   34  A    between atoms: _83  and  _84
REMARK   35  A    between atoms: _93  and  _95
REMARK   36  A    between atoms: _95  and  _96
REMARK   37  A    between atoms: _95  and  _98
REMARK   38  A    between atoms: _98  and  _99
REMARK   39  A    between atoms: _99  and  _100
REMARK   40  A    between atoms: _103  and  _105
REMARK   41  A    between atoms: _105  and  _106
REMARK   42  A    between atoms: _105  and  _108
REMARK   43  A    between atoms: _108  and  _109
REMARK   44  A    between atoms: _114  and  _116
REMARK   45  A    between atoms: _116  and  _117
REMARK   46  A    between atoms: _116  and  _119
REMARK   47  A    between atoms: _122  and  _124
REMARK   48  A    between atoms: _124  and  _125
REMARK   49  A    between atoms: _124  and  _127
REMARK   50  A    between atoms: _130  and  _132
REMARK   51  A    between atoms: _132  and  _133
REMARK   52  A    between atoms: _132  and  _135
REMARK   53  A    between atoms: _137  and  _139
REMARK   54  A    between atoms: _139  and  _140
REMARK   55  A    between atoms: _139  and  _142
REMARK   56  A    between atoms: _142  and  _143
REMARK   57  A    between atoms: _148  and  _150
REMARK   58  A    between atoms: _150  and  _151
REMARK   59  A    between atoms: _150  and  _153
REMARK   60  A    between atoms: _153  and  _154
REMARK   61  A    between atoms: _157  and  _159
REMARK   62  A    between atoms: _159  and  _160
REMARK   63  A    between atoms: _159  and  _162
REMARK   64  A    between atoms: _162  and  _163
REMARK   65  A    between atoms: _163  and  _164
REMARK   66  A    between atoms: _164  and  _165
REMARK   67  A    between atoms: _165  and  _166
REMARK   68  A    between atoms: _170  and  _172
REMARK   69  A    between atoms: _172  and  _173
REMARK   70  A    between atoms: _172  and  _175
REMARK   71  A    between atoms: _175  and  _176
REMARK   72  A    between atoms: _186  and  _188
REMARK   73  A    between atoms: _188  and  _189
REMARK   74  A    between atoms: _191  and  _193
REMARK   75  A    between atoms: _193  and  _194
REMARK   76  A    between atoms: _193  and  _196
REMARK   77  A    between atoms: _196  and  _197
REMARK   78  A    between atoms: _197  and  _198
REMARK   79  A    between atoms: _198  and  _199
REMARK   80  A    between atoms: _208  and  _210
REMARK   81  A    between atoms: _210  and  _211
REMARK   82  A    between atoms: _210  and  _213
REMARK   83  A    between atoms: _213  and  _214
REMARK   84  A    between atoms: _214  and  _215
REMARK   85  A    between atoms: _218  and  _220
REMARK   86  A    between atoms: _220  and  _221
REMARK   87  A    between atoms: _220  and  _223
REMARK   88  A    between atoms: _223  and  _224
REMARK   89  A    between atoms: _224  and  _225
REMARK   90  A    between atoms: _228  and  _230
REMARK   91  A    between atoms: _230  and  _231
REMARK   92  A    between atoms: _230  and  _233
REMARK   93  A    between atoms: _233  and  _234
REMARK   94  A    between atoms: _234  and  _235
REMARK   95  A    between atoms: _235  and  _236
REMARK   96  A    between atoms: _245  and  _247
REMARK   97  A    between atoms: _247  and  _248
REMARK   98  A    between atoms: _247  and  _250
REMARK   99  A    between atoms: _250  and  _251
REMARK  100  A    between atoms: _251  and  _252
REMARK  101  A    between atoms: _252  and  _253
REMARK                            x       y       z     vdW  Elec       q    Type
REMARK                         _______ _______ _______ _____ _____    ______ ____
ROOT
ATOM      1  O   HOH     1      18.822 -14.128   5.253  0.00  0.00    +0.000 OA
ENDROOT
TORSDOF 0
REMARK  Name = ../refined-set-2016/4jc1/4jc1_pocket.pdb
REMARK  101 active torsions:
REMARK  status: ('A' for Active; 'I' for Inactive)
REMARK    1  A    between atoms: _1  and  _3
REMARK    2  A    between atoms: _3  and  _4
REMARK    3  A    between atoms: _3  and  _6
REMARK    4  A    between atoms: _6  and  _7
REMARK    5  A    between atoms: _7  and  _8
REMARK    6  A    between atoms: _8  and  _9
REMARK    7  A    between atoms: _18  and  _20
REMARK    8  A    between atoms: _20  and  _21
REMARK    9  A    between atoms: _20  and  _23
REMARK   10  A    between atoms: _23  and  _24
REMARK   11  A    between atoms: _27  and  _29
REMARK   12  A    between atoms: _29  and  _30
REMARK   13  A    between atoms: _33  and  _35
REMARK   14  A    between atoms: _35  and  _36
REMARK   15  A    between atoms: _35  and  _38
REMARK   16  A    between atoms: _38  and  _39
REMARK   17  A    between atoms: _42  and  _44
REMARK   18  A    between atoms: _44  and  _45
REMARK   19  A    between atoms: _44  and  _47
REMARK   20  A    between atoms: _47  and  _48
REMARK   21  A    between atoms: _53  and  _55
REMARK   22  A    between atoms: _55  and  _56
REMARK   23  A    between atoms: _55  and  _58
REMARK   24  A    between atoms: _58  and  _59
REMARK   25  A    between atoms: _65  and  _67
REMARK   26  A    between atoms: _67  and  _68
REMARK   27  A    between atoms: _67  and  _70
REMARK   28  A    between atoms: _70  and  _71
REMARK   29  A    between atoms: _76  and  _78
REMARK   30  A    between atoms: _78  and  _79
REMARK   31  A    between atoms: _78  and  _81
REMARK   32  A    between atoms: _81  and  _82
REMARK   33  A    between atoms: _82  and  _83
REMARK   34  A    between atoms: _83  and  _84
REMARK   35  A    between atoms: _93  and  _95
REMARK   36  A    between atoms: _95  and  _96
REMARK   37  A    between atoms: _95  and  _98
REMARK   38  A    between atoms: _98  and  _99
REMARK   39  A    between atoms: _99  and  _100
REMARK   40  A    between atoms: _103  and  _105
REMARK   41  A    between atoms: _105  and  _106
REMARK   42  A    between atoms: _105  and  _108
REMARK   43  A    between atoms: _108  and  _109
REMARK   44  A    between atoms: _114  and  _116
REMARK   45  A    between atoms: _116  and  _117
REMARK   46  A    between atoms: _116  and  _119
REMARK   47  A    between atoms: _122  and  _124
REMARK   48  A    between atoms: _124  and  _125
REMARK   49  A    between atoms: _124  and  _127
REMARK   50  A    between atoms: _130  and  _132
REMARK   51  A    between atoms: _132  and  _133
REMARK   52  A    between atoms: _132  and  _135
REMARK   53  A    between atoms: _137  and  _139
REMARK   54  A    between atoms: _139  and  _140
REMARK   55  A    between atoms: _139  and  _142
REMARK   56  A    between atoms: _142  and  _143
REMARK   57  A    between atoms: _148  and  _150
REMARK   58  A    between atoms: _150  and  _151
REMARK   59  A    between atoms: _150  and  _153
REMARK   60  A    between atoms: _153  and  _154
REMARK   61  A    between atoms: _157  and  _159
REMARK   62  A    between atoms: _159  and  _160
REMARK   63  A    between atoms: _159  and  _162
REMARK   64  A    between atoms: _162  and  _163
REMARK   65  A    between atoms: _163  and  _164
REMARK   66  A    between atoms: _164  and  _165
REMARK   67  A    between atoms: _165  and  _166
REMARK   68  A    between atoms: _170  and  _172
REMARK   69  A    between atoms: _172  and  _173
REMARK   70  A    between atoms: _172  and  _175
REMARK   71  A    between atoms: _175  and  _176
REMARK   72  A    between atoms: _186  and  _188
REMARK   73  A    between atoms: _188  and  _189
REMARK   74  A    between atoms: _191  and  _193
REMARK   75  A    between atoms: _193  and  _194
REMARK   76  A    between atoms: _193  and  _196
REMARK   77  A    between atoms: _196  and  _197
REMARK   78  A    between atoms: _197  and  _198
REMARK   79  A    between atoms: _198  and  _199
REMARK   80  A    between atoms: _208  and  _210
REMARK   81  A    between atoms: _210  and  _211
REMARK   82  A    between atoms: _210  and  _213
REMARK   83  A    between atoms: _213  and  _214
REMARK   84  A    between atoms: _214  and  _215
REMARK   85  A    between atoms: _218  and  _220
REMARK   86  A    between atoms: _220  and  _221
REMARK   87  A    between atoms: _220  and  _223
REMARK   88  A    between atoms: _223  and  _224
REMARK   89  A    between atoms: _224  and  _225
REMARK   90  A    between atoms: _228  and  _230
REMARK   91  A    between atoms: _230  and  _231
REMARK   92  A    between atoms: _230  and  _233
REMARK   93  A    between atoms: _233  and  _234
REMARK   94  A    between atoms: _234  and  _235
REMARK   95  A    between atoms: _235  and  _236
REMARK   96  A    between atoms: _245  and  _247
REMARK   97  A    between atoms: _247  and  _248
REMARK   98  A    between atoms: _247  and  _250
REMARK   99  A    between atoms: _250  and  _251
REMARK  100  A    between atoms: _251  and  _252
REMARK  101  A    between atoms: _252  and  _253
REMARK                            x       y       z     vdW  Elec       q    Type
REMARK                         _______ _______ _______ _____ _____    ______ ____
ROOT
ATOM      1  O   HOH     1      20.264  -9.457  -5.142  0.00  0.00    +0.000 OA
ENDROOT
TORSDOF 0
REMARK  Name = ../refined-set-2016/4jc1/4jc1_pocket.pdb
REMARK  101 active torsions:
REMARK  status: ('A' for Active; 'I' for Inactive)
REMARK    1  A    between atoms: _1  and  _3
REMARK    2  A    between atoms: _3  and  _4
REMARK    3  A    between atoms: _3  and  _6
REMARK    4  A    between atoms: _6  and  _7
REMARK    5  A    between atoms: _7  and  _8
REMARK    6  A    between atoms: _8  and  _9
REMARK    7  A    between atoms: _18  and  _20
REMARK    8  A    between atoms: _20  and  _21
REMARK    9  A    between atoms: _20  and  _23
REMARK   10  A    between atoms: _23  and  _24
REMARK   11  A    between atoms: _27  and  _29
REMARK   12  A    between atoms: _29  and  _30
REMARK   13  A    between atoms: _33  and  _35
REMARK   14  A    between atoms: _35  and  _36
REMARK   15  A    between atoms: _35  and  _38
REMARK   16  A    between atoms: _38  and  _39
REMARK   17  A    between atoms: _42  and  _44
REMARK   18  A    between atoms: _44  and  _45
REMARK   19  A    between atoms: _44  and  _47
REMARK   20  A    between atoms: _47  and  _48
REMARK   21  A    between atoms: _53  and  _55
REMARK   22  A    between atoms: _55  and  _56
REMARK   23  A    between atoms: _55  and  _58
REMARK   24  A    between atoms: _58  and  _59
REMARK   25  A    between atoms: _65  and  _67
REMARK   26  A    between atoms: _67  and  _68
REMARK   27  A    between atoms: _67  and  _70
REMARK   28  A    between atoms: _70  and  _71
REMARK   29  A    between atoms: _76  and  _78
REMARK   30  A    between atoms: _78  and  _79
REMARK   31  A    between atoms: _78  and  _81
REMARK   32  A    between atoms: _81  and  _82
REMARK   33  A    between atoms: _82  and  _83
REMARK   34  A    between atoms: _83  and  _84
REMARK   35  A    between atoms: _93  and  _95
REMARK   36  A    between atoms: _95  and  _96
REMARK   37  A    between atoms: _95  and  _98
REMARK   38  A    between atoms: _98  and  _99
REMARK   39  A    between atoms: _99  and  _100
REMARK   40  A    between atoms: _103  and  _105
REMARK   41  A    between atoms: _105  and  _106
REMARK   42  A    between atoms: _105  and  _108
REMARK   43  A    between atoms: _108  and  _109
REMARK   44  A    between atoms: _114  and  _116
REMARK   45  A    between atoms: _116  and  _117
REMARK   46  A    between atoms: _116  and  _119
REMARK   47  A    between atoms: _122  and  _124
REMARK   48  A    between atoms: _124  and  _125
REMARK   49  A    between atoms: _124  and  _127
REMARK   50  A    between atoms: _130  and  _132
REMARK   51  A    between atoms: _132  and  _133
REMARK   52  A    between atoms: _132  and  _135
REMARK   53  A    between atoms: _137  and  _139
REMARK   54  A    between atoms: _139  and  _140
REMARK   55  A    between atoms: _139  and  _142
REMARK   56  A    between atoms: _142  and  _143
REMARK   57  A    between atoms: _148  and  _150
REMARK   58  A    between atoms: _150  and  _151
REMARK   59  A    between atoms: _150  and  _153
REMARK   60  A    between atoms: _153  and  _154
REMARK   61  A    between atoms: _157  and  _159
REMARK   62  A    between atoms: _159  and  _160
REMARK   63  A    between atoms: _159  and  _162
REMARK   64  A    between atoms: _162  and  _163
REMARK   65  A    between atoms: _163  and  _164
REMARK   66  A    between atoms: _164  and  _165
REMARK   67  A    between atoms: _165  and  _166
REMARK   68  A    between atoms: _170  and  _172
REMARK   69  A    between atoms: _172  and  _173
REMARK   70  A    between atoms: _172  and  _175
REMARK   71  A    between atoms: _175  and  _176
REMARK   72  A    between atoms: _186  and  _188
REMARK   73  A    between atoms: _188  and  _189
REMARK   74  A    between atoms: _191  and  _193
REMARK   75  A    between atoms: _193  and  _194
REMARK   76  A    between atoms: _193  and  _196
REMARK   77  A    between atoms: _196  and  _197
REMARK   78  A    between atoms: _197  and  _198
REMARK   79  A    between atoms: _198  and  _199
REMARK   80  A    between atoms: _208  and  _210
REMARK   81  A    between atoms: _210  and  _211
REMARK   82  A    between atoms: _210  and  _213
REMARK   83  A    between atoms: _213  and  _214
REMARK   84  A    between atoms: _214  and  _215
REMARK   85  A    between atoms: _218  and  _220
REMARK   86  A    between atoms: _220  and  _221
REMARK   87  A    between atoms: _220  and  _223
REMARK   88  A    between atoms: _223  and  _224
REMARK   89  A    between atoms: _224  and  _225
REMARK   90  A    between atoms: _228  and  _230
REMARK   91  A    between atoms: _230  and  _231
REMARK   92  A    between atoms: _230  and  _233
REMARK   93  A    between atoms: _233  and  _234
REMARK   94  A    between atoms: _234  and  _235
REMARK   95  A    between atoms: _235  and  _236
REMARK   96  A    between atoms: _245  and  _247
REMARK   97  A    between atoms: _247  and  _248
REMARK   98  A    between atoms: _247  and  _250
REMARK   99  A    between atoms: _250  and  _251
REMARK  100  A    between atoms: _251  and  _252
REMARK  101  A    between atoms: _252  and  _253
REMARK                            x       y       z     vdW  Elec       q    Type
REMARK                         _______ _______ _______ _____ _____    ______ ____
ROOT
ATOM      1  O   HOH     1      15.767 -10.602   3.269  0.00  0.00    +0.000 OA
ENDROOT
TORSDOF 0
