REMARK  Name = ../refined-set-2016/4c2v/4c2v_pocket.pdb
REMARK  259 active torsions:
REMARK  status: ('A' for Active; 'I' for Inactive)
REMARK    1  A    between atoms: _1  and  _3
REMARK    2  A    between atoms: _3  and  _4
REMARK    3  A    between atoms: _3  and  _6
REMARK    4  A    between atoms: _6  and  _7
REMARK    5  A    between atoms: _7  and  _8
REMARK    6  A    between atoms: _8  and  _9
REMARK    7  A    between atoms: _19  and  _20
REMARK    8  A    between atoms: _25  and  _27
REMARK    9  A    between atoms: _27  and  _28
REMARK   10  A    between atoms: _27  and  _30
REMARK   11  A    between atoms: _30  and  _31
REMARK   12  A    between atoms: _34  and  _36
REMARK   13  A    between atoms: _36  and  _37
REMARK   14  A    between atoms: _39  and  _41
REMARK   15  A    between atoms: _41  and  _42
REMARK   16  A    between atoms: _41  and  _44
REMARK   17  A    between atoms: _44  and  _45
REMARK   18  A    between atoms: _45  and  _46
REMARK   19  A    between atoms: _46  and  _47
REMARK   20  A    between atoms: _47  and  _48
REMARK   21  A    between atoms: _52  and  _54
REMARK   22  A    between atoms: _54  and  _55
REMARK   23  A    between atoms: _57  and  _59
REMARK   24  A    between atoms: _59  and  _60
REMARK   25  A    between atoms: _59  and  _62
REMARK   26  A    between atoms: _62  and  _63
REMARK   27  A    between atoms: _63  and  _64
REMARK   28  A    between atoms: _64  and  _65
REMARK   29  A    between atoms: _65  and  _66
REMARK   30  A    between atoms: _70  and  _72
REMARK   31  A    between atoms: _72  and  _73
REMARK   32  A    between atoms: _72  and  _75
REMARK   33  A    between atoms: _75  and  _76
REMARK   34  A    between atoms: _82  and  _84
REMARK   35  A    between atoms: _84  and  _85
REMARK   36  A    between atoms: _87  and  _89
REMARK   37  A    between atoms: _89  and  _90
REMARK   38  A    between atoms: _89  and  _92
REMARK   39  A    between atoms: _92  and  _93
REMARK   40  A    between atoms: _98  and  _100
REMARK   41  A    between atoms: _100  and  _101
REMARK   42  A    between atoms: _100  and  _103
REMARK   43  A    between atoms: _106  and  _108
REMARK   44  A    between atoms: _108  and  _109
REMARK   45  A    between atoms: _108  and  _111
REMARK   46  A    between atoms: _111  and  _112
REMARK   47  A    between atoms: _117  and  _118
REMARK   48  A    between atoms: _120  and  _122
REMARK   49  A    between atoms: _122  and  _123
REMARK   50  A    between atoms: _122  and  _125
REMARK   51  A    between atoms: _125  and  _126
REMARK   52  A    between atoms: _129  and  _131
REMARK   53  A    between atoms: _131  and  _132
REMARK   54  A    between atoms: _135  and  _137
REMARK   55  A    between atoms: _137  and  _138
REMARK   56  A    between atoms: _137  and  _140
REMARK   57  A    between atoms: _140  and  _141
REMARK   58  A    between atoms: _141  and  _142
REMARK   59  A    between atoms: _144  and  _146
REMARK   60  A    between atoms: _146  and  _147
REMARK   61  A    between atoms: _150  and  _152
REMARK   62  A    between atoms: _152  and  _153
REMARK   63  A    between atoms: _152  and  _155
REMARK   64  A    between atoms: _155  and  _156
REMARK   65  A    between atoms: _159  and  _161
REMARK   66  A    between atoms: _161  and  _162
REMARK   67  A    between atoms: _161  and  _164
REMARK   68  A    between atoms: _164  and  _165
REMARK   69  A    between atoms: _165  and  _166
REMARK   70  A    between atoms: _166  and  _167
REMARK   71  A    between atoms: _167  and  _168
REMARK   72  A    between atoms: _172  and  _174
REMARK   73  A    between atoms: _174  and  _175
REMARK   74  A    between atoms: _174  and  _177
REMARK   75  A    between atoms: _180  and  _182
REMARK   76  A    between atoms: _182  and  _183
REMARK   77  A    between atoms: _182  and  _185
REMARK   78  A    between atoms: _185  and  _186
REMARK   79  A    between atoms: _189  and  _191
REMARK   80  A    between atoms: _191  and  _192
REMARK   81  A    between atoms: _191  and  _194
REMARK   82  A    between atoms: _194  and  _195
REMARK   83  A    between atoms: _198  and  _200
REMARK   84  A    between atoms: _200  and  _201
REMARK   85  A    between atoms: _200  and  _203
REMARK   86  A    between atoms: _203  and  _204
REMARK   87  A    between atoms: _204  and  _205
REMARK   88  A    between atoms: _210  and  _212
REMARK   89  A    between atoms: _212  and  _213
REMARK   90  A    between atoms: _212  and  _215
REMARK   91  A    between atoms: _215  and  _216
REMARK   92  A    between atoms: _219  and  _221
REMARK   93  A    between atoms: _221  and  _222
REMARK   94  A    between atoms: _221  and  _224
REMARK   95  A    between atoms: _224  and  _225
REMARK   96  A    between atoms: _225  and  _226
REMARK   97  A    between atoms: _226  and  _227
REMARK   98  A    between atoms: _236  and  _238
REMARK   99  A    between atoms: _238  and  _239
REMARK  100  A    between atoms: _238  and  _241
REMARK  101  A    between atoms: _241  and  _242
REMARK  102  A    between atoms: _242  and  _243
REMARK  103  A    between atoms: _243  and  _244
REMARK  104  A    between atoms: _253  and  _255
REMARK  105  A    between atoms: _255  and  _256
REMARK  106  A    between atoms: _255  and  _258
REMARK  107  A    between atoms: _258  and  _259
REMARK  108  A    between atoms: _259  and  _260
REMARK  109  A    between atoms: _263  and  _265
REMARK  110  A    between atoms: _265  and  _266
REMARK  111  A    between atoms: _265  and  _268
REMARK  112  A    between atoms: _268  and  _269
REMARK  113  A    between atoms: _272  and  _274
REMARK  114  A    between atoms: _274  and  _275
REMARK  115  A    between atoms: _274  and  _277
REMARK  116  A    between atoms: _277  and  _278
REMARK  117  A    between atoms: _278  and  _279
REMARK  118  A    between atoms: _282  and  _284
REMARK  119  A    between atoms: _284  and  _285
REMARK  120  A    between atoms: _284  and  _287
REMARK  121  A    between atoms: _287  and  _288
REMARK  122  A    between atoms: _291  and  _293
REMARK  123  A    between atoms: _293  and  _294
REMARK  124  A    between atoms: _293  and  _296
REMARK  125  A    between atoms: _296  and  _297
REMARK  126  A    between atoms: _297  and  _298
REMARK  127  A    between atoms: _303  and  _305
REMARK  128  A    between atoms: _305  and  _306
REMARK  129  A    between atoms: _305  and  _308
REMARK  130  A    between atoms: _308  and  _309
REMARK  131  A    between atoms: _311  and  _313
REMARK  132  A    between atoms: _313  and  _314
REMARK  133  A    between atoms: _313  and  _316
REMARK  134  A    between atoms: _316  and  _317
REMARK  135  A    between atoms: _320  and  _322
REMARK  136  A    between atoms: _322  and  _323
REMARK  137  A    between atoms: _322  and  _325
REMARK  138  A    between atoms: _325  and  _326
REMARK  139  A    between atoms: _326  and  _327
REMARK  140  A    between atoms: _327  and  _328
REMARK  141  A    between atoms: _337  and  _339
REMARK  142  A    between atoms: _339  and  _340
REMARK  143  A    between atoms: _339  and  _342
REMARK  144  A    between atoms: _342  and  _343
REMARK  145  A    between atoms: _343  and  _344
REMARK  146  A    between atoms: _346  and  _348
REMARK  147  A    between atoms: _348  and  _349
REMARK  148  A    between atoms: _348  and  _351
REMARK  149  A    between atoms: _351  and  _352
REMARK  150  A    between atoms: _355  and  _357
REMARK  151  A    between atoms: _357  and  _358
REMARK  152  A    between atoms: _357  and  _360
REMARK  153  A    between atoms: _360  and  _361
REMARK  154  A    between atoms: _364  and  _366
REMARK  155  A    between atoms: _366  and  _367
REMARK  156  A    between atoms: _366  and  _369
REMARK  157  A    between atoms: _369  and  _370
REMARK  158  A    between atoms: _370  and  _371
REMARK  159  A    between atoms: _373  and  _375
REMARK  160  A    between atoms: _375  and  _376
REMARK  161  A    between atoms: _375  and  _378
REMARK  162  A    between atoms: _378  and  _379
REMARK  163  A    between atoms: _382  and  _384
REMARK  164  A    between atoms: _384  and  _385
REMARK  165  A    between atoms: _384  and  _387
REMARK  166  A    between atoms: _387  and  _388
REMARK  167  A    between atoms: _388  and  _389
REMARK  168  A    between atoms: _392  and  _394
REMARK  169  A    between atoms: _394  and  _395
REMARK  170  A    between atoms: _394  and  _397
REMARK  171  A    between atoms: _397  and  _398
REMARK  172  A    between atoms: _404  and  _406
REMARK  173  A    between atoms: _406  and  _407
REMARK  174  A    between atoms: _411  and  _412
REMARK  175  A    between atoms: _417  and  _419
REMARK  176  A    between atoms: _419  and  _420
REMARK  177  A    between atoms: _419  and  _422
REMARK  178  A    between atoms: _422  and  _423
REMARK  179  A    between atoms: _423  and  _424
REMARK  180  A    between atoms: _424  and  _425
REMARK  181  A    between atoms: _434  and  _436
REMARK  182  A    between atoms: _436  and  _437
REMARK  183  A    between atoms: _439  and  _441
REMARK  184  A    between atoms: _441  and  _442
REMARK  185  A    between atoms: _441  and  _444
REMARK  186  A    between atoms: _444  and  _445
REMARK  187  A    between atoms: _445  and  _446
REMARK  188  A    between atoms: _449  and  _451
REMARK  189  A    between atoms: _451  and  _452
REMARK  190  A    between atoms: _451  and  _454
REMARK  191  A    between atoms: _454  and  _455
REMARK  192  A    between atoms: _458  and  _460
REMARK  193  A    between atoms: _460  and  _461
REMARK  194  A    between atoms: _460  and  _463
REMARK  195  A    between atoms: _463  and  _464
REMARK  196  A    between atoms: _464  and  _465
REMARK  197  A    between atoms: _465  and  _466
REMARK  198  A    between atoms: _466  and  _467
REMARK  199  A    between atoms: _471  and  _473
REMARK  200  A    between atoms: _473  and  _474
REMARK  201  A    between atoms: _473  and  _476
REMARK  202  A    between atoms: _476  and  _477
REMARK  203  A    between atoms: _477  and  _478
REMARK  204  A    between atoms: _481  and  _483
REMARK  205  A    between atoms: _483  and  _484
REMARK  206  A    between atoms: _483  and  _486
REMARK  207  A    between atoms: _486  and  _487
REMARK  208  A    between atoms: _487  and  _488
REMARK  209  A    between atoms: _488  and  _489
REMARK  210  A    between atoms: _489  and  _490
REMARK  211  A    between atoms: _494  and  _496
REMARK  212  A    between atoms: _496  and  _497
REMARK  213  A    between atoms: _496  and  _499
REMARK  214  A    between atoms: _499  and  _500
REMARK  215  A    between atoms: _500  and  _501
REMARK  216  A    between atoms: _504  and  _506
REMARK  217  A    between atoms: _506  and  _507
REMARK  218  A    between atoms: _506  and  _509
REMARK  219  A    between atoms: _509  and  _510
REMARK  220  A    between atoms: _515  and  _517
REMARK  221  A    between atoms: _517  and  _518
REMARK  222  A    between atoms: _517  and  _520
REMARK  223  A    between atoms: _520  and  _521
REMARK  224  A    between atoms: _524  and  _526
REMARK  225  A    between atoms: _526  and  _527
REMARK  226  A    between atoms: _526  and  _529
REMARK  227  A    between atoms: _529  and  _530
REMARK  228  A    between atoms: _533  and  _535
REMARK  229  A    between atoms: _535  and  _536
REMARK  230  A    between atoms: _535  and  _538
REMARK  231  A    between atoms: _538  and  _539
REMARK  232  A    between atoms: _539  and  _540
REMARK  233  A    between atoms: _542  and  _544
REMARK  234  A    between atoms: _544  and  _545
REMARK  235  A    between atoms: _544  and  _547
REMARK  236  A    between atoms: _547  and  _548
REMARK  237  A    between atoms: _548  and  _549
REMARK  238  A    between atoms: _549  and  _550
REMARK  239  A    between atoms: _550  and  _551
REMARK  240  A    between atoms: _555  and  _557
REMARK  241  A    between atoms: _557  and  _558
REMARK  242  A    between atoms: _557  and  _560
REMARK  243  A    between atoms: _560  and  _561
REMARK  244  A    between atoms: _564  and  _566
REMARK  245  A    between atoms: _566  and  _567
REMARK  246  A    between atoms: _570  and  _572
REMARK  247  A    between atoms: _572  and  _573
REMARK  248  A    between atoms: _572  and  _575
REMARK  249  A    between atoms: _575  and  _576
REMARK  250  A    between atoms: _579  and  _581
REMARK  251  A    between atoms: _581  and  _582
REMARK  252  A    between atoms: _581  and  _584
REMARK  253  A    between atoms: _584  and  _585
REMARK  254  A    between atoms: _591  and  _593
REMARK  255  A    between atoms: _593  and  _594
REMARK  256  A    between atoms: _596  and  _598
REMARK  257  A    between atoms: _598  and  _599
REMARK  258  A    between atoms: _598  and  _601
REMARK  259  A    between atoms: _601  and  _602
REMARK                            x       y       z     vdW  Elec       q    Type
REMARK                         _______ _______ _______ _____ _____    ______ ____
ROOT
ATOM      1  CA  LYS A   7      -2.751 -24.207   2.198  0.00  0.00    +0.149 C 
ENDROOT
BRANCH   1   2
ATOM      2  C   LYS A   7      -3.048 -22.970   1.330  0.00  0.00    +0.241 C 
ATOM      3  N   PHE A   8      -2.195 -21.963   1.529  0.00  0.00    -0.297 N 
ATOM      4  H   PHE A   8      -1.423 -22.098   2.213  0.00  0.00    +0.150 HD
ATOM      5  O   LYS A   7      -3.979 -22.946   0.478  0.00  0.00    -0.273 OA
BRANCH   3   6
ATOM      6  CA  PHE A   8      -2.291 -20.667   0.827  0.00  0.00    +0.153 C 
BRANCH   6   7
ATOM      7  C   PHE A   8      -1.216 -20.529  -0.286  0.00  0.00    +0.241 C 
ATOM      8  N   GLY A   9      -0.057 -21.199  -0.159  0.00  0.00    -0.295 N 
ATOM      9  H   GLY A   9       0.079 -21.844   0.646  0.00  0.00    +0.150 HD
ATOM     10  O   PHE A   8      -1.470 -19.871  -1.284  0.00  0.00    -0.273 OA
BRANCH   8  11
ATOM     11  CA  GLY A   9       1.038 -21.027  -1.162  0.00  0.00    +0.176 C 
BRANCH  11  12
ATOM     12  C   GLY A   9       2.380 -21.769  -1.031  0.00  0.00    +0.243 C 
ATOM     13  O   GLY A   9       2.578 -22.504  -0.060  0.00  0.00    -0.273 OA
ATOM     14  N   ASN A  10       3.258 -21.596  -2.039  0.00  0.00    -0.297 N 
ATOM     15  H   ASN A  10       2.976 -20.996  -2.840  0.00  0.00    +0.150 HD
BRANCH  14  16
ATOM     16  CA  ASN A  10       4.626 -22.226  -2.066  0.00  0.00    +0.158 C 
BRANCH  16  17
ATOM     17  C   ASN A  10       5.712 -21.618  -1.184  0.00  0.00    +0.241 C 
ATOM     18  N   VAL A  11       6.530 -22.535  -0.642  0.00  0.00    -0.297 N 
ATOM     19  H   VAL A  11       6.285 -23.543  -0.711  0.00  0.00    +0.150 HD
ATOM     20  O   ASN A  10       5.864 -20.415  -1.109  0.00  0.00    -0.273 OA
BRANCH  18  21
ATOM     21  CA  VAL A  11       7.808 -22.123   0.070  0.00  0.00    +0.149 C 
BRANCH  21  22
ATOM     22  C   VAL A  11       9.049 -22.405  -0.751  0.00  0.00    +0.241 C 
ATOM     23  N   TYR A  12       9.986 -21.448  -0.829  0.00  0.00    -0.297 N 
ATOM     24  H   TYR A  12       9.799 -20.564  -0.314  0.00  0.00    +0.150 HD
ATOM     25  O   VAL A  11       9.126 -23.550  -1.286  0.00  0.00    -0.273 OA
BRANCH  23  26
ATOM     26  CA  TYR A  12      11.271 -21.529  -1.583  0.00  0.00    +0.153 C 
BRANCH  26  27
ATOM     27  C   TYR A  12      12.466 -21.415  -0.670  0.00  0.00    +0.241 C 
ATOM     28  O   TYR A  12      12.443 -20.600   0.249  0.00  0.00    -0.273 OA
ATOM     29  N   LEU A  13      13.547 -22.176  -0.948  0.00  0.00    -0.297 N 
ATOM     30  H   LEU A  13      13.463 -22.987  -1.594  0.00  0.00    +0.150 HD
BRANCH  29  31
ATOM     31  CA  LEU A  13      14.828 -21.856  -0.339  0.00  0.00    +0.149 C 
BRANCH  31  32
ATOM     32  C   LEU A  13      15.348 -20.576  -0.963  0.00  0.00    +0.241 C 
ATOM     33  N   ALA A  14      15.823 -19.656  -0.153  0.00  0.00    -0.298 N 
ATOM     34  H   ALA A  14      15.881 -19.881   0.861  0.00  0.00    +0.150 HD
ATOM     35  O   LEU A  13      15.293 -20.392  -2.219  0.00  0.00    -0.273 OA
BRANCH  33  36
ATOM     36  CA  ALA A  14      16.270 -18.350  -0.586  0.00  0.00    +0.137 C 
ATOM     37  CB  ALA A  14      15.126 -17.379  -0.576  0.00  0.00    +0.030 C 
BRANCH  36  38
ATOM     38  C   ALA A  14      17.486 -17.853   0.159  0.00  0.00    +0.227 C 
ATOM     39  O   ALA A  14      17.778 -18.326   1.292  0.00  0.00    -0.286 OA
ENDBRANCH  36  38
ENDBRANCH  33  36
ENDBRANCH  31  32
BRANCH  31  40
ATOM     40  CB  LEU A  13      15.807 -22.944  -0.605  0.00  0.00    +0.029 C 
BRANCH  40  41
ATOM     41  CG  LEU A  13      17.250 -22.853  -0.084  0.00  0.00    +0.002 C 
ATOM     42  CD2 LEU A  13      17.240 -22.830   1.416  0.00  0.00    +0.000 C 
ATOM     43  CD1 LEU A  13      17.997 -24.094  -0.601  0.00  0.00    +0.000 C 
ENDBRANCH  40  41
ENDBRANCH  31  40
ENDBRANCH  29  31
ENDBRANCH  26  27
BRANCH  26  44
ATOM     44  CB  TYR A  12      11.404 -20.442  -2.627  0.00  0.00    +0.055 C 
BRANCH  44  45
ATOM     45  CG  TYR A  12      10.319 -20.555  -3.664  0.00  0.00    -0.020 A 
ATOM     46  CD2 TYR A  12       9.030 -20.151  -3.354  0.00  0.00    -0.001 A 
ATOM     47  CE2 TYR A  12       7.998 -20.275  -4.232  0.00  0.00    +0.036 A 
ATOM     48  CZ  TYR A  12       8.239 -20.808  -5.462  0.00  0.00    +0.134 A 
ATOM     49  CE1 TYR A  12       9.508 -21.207  -5.832  0.00  0.00    +0.036 A 
ATOM     50  CD1 TYR A  12      10.557 -21.098  -4.918  0.00  0.00    -0.001 A 
BRANCH  48  51
ATOM     51  OH  TYR A  12       7.128 -20.899  -6.334  0.00  0.00    -0.506 OA
ATOM     52  HH  TYR A  12       6.319 -20.562  -5.873  0.00  0.00    +0.292 HD
ENDBRANCH  48  51
ENDBRANCH  44  45
ENDBRANCH  26  44
ENDBRANCH  23  26
ENDBRANCH  21  22
BRANCH  21  53
ATOM     53  CB  VAL A  11       7.909 -22.832   1.385  0.00  0.00    +0.027 C 
ATOM     54  CG2 VAL A  11       9.043 -22.289   2.262  0.00  0.00    +0.002 C 
ATOM     55  CG1 VAL A  11       6.646 -22.622   2.150  0.00  0.00    +0.002 C 
ENDBRANCH  21  53
ENDBRANCH  18  21
ENDBRANCH  16  17
BRANCH  16  56
ATOM     56  CB  ASN A  10       5.262 -22.247  -3.419  0.00  0.00    +0.114 C 
BRANCH  56  57
ATOM     57  CG  ASN A  10       4.726 -23.360  -4.300  0.00  0.00    +0.222 C 
ATOM     58  OD1 ASN A  10       3.760 -24.064  -3.942  0.00  0.00    -0.275 OA
ATOM     59  ND2 ASN A  10       5.323 -23.496  -5.481  0.00  0.00    -0.329 N 
ATOM     60 HD21 ASN A  10       6.125 -22.884  -5.732  0.00  0.00    +0.145 HD
ATOM     61 HD22 ASN A  10       4.987 -24.215  -6.154  0.00  0.00    +0.145 HD
ENDBRANCH  56  57
ENDBRANCH  16  56
ENDBRANCH  14  16
ENDBRANCH  11  12
ENDBRANCH   8  11
ENDBRANCH   6   7
BRANCH   6  62
ATOM     62  CB  PHE A   8      -2.218 -19.522   1.872  0.00  0.00    +0.055 C 
BRANCH  62  63
ATOM     63  CG  PHE A   8      -3.269 -19.617   2.983  0.00  0.00    -0.020 A 
ATOM     64  CD2 PHE A   8      -2.980 -19.151   4.275  0.00  0.00    -0.004 A 
ATOM     65  CE2 PHE A   8      -3.927 -19.217   5.293  0.00  0.00    -0.000 A 
ATOM     66  CZ  PHE A   8      -5.178 -19.766   5.042  0.00  0.00    -0.000 A 
ATOM     67  CE1 PHE A   8      -5.489 -20.244   3.769  0.00  0.00    -0.000 A 
ATOM     68  CD1 PHE A   8      -4.546 -20.168   2.740  0.00  0.00    -0.004 A 
ENDBRANCH  62  63
ENDBRANCH   6  62
ENDBRANCH   3   6
ENDBRANCH   1   2
BRANCH   1  70
ATOM     69  C   GLY A   6      -0.404 -24.590   1.524  0.00  0.00    +0.243 C 
ATOM     70  N   LYS A   7      -1.295 -24.273   2.455  0.00  0.00    -0.297 N 
ATOM     71  H   LYS A   7      -0.953 -24.060   3.414  0.00  0.00    +0.150 HD
ATOM     72  O   GLY A   6      -0.664 -24.644   0.307  0.00  0.00    -0.273 OA
BRANCH  69  73
ATOM     73  CA  GLY A   6       0.993 -24.864   2.029  0.00  0.00    +0.176 C 
BRANCH  73  76
ATOM     74  C   LYS A   5       2.893 -25.611   0.702  0.00  0.00    +0.241 C 
ATOM     75  O   LYS A   5       3.686 -24.910   1.366  0.00  0.00    -0.273 OA
ATOM     76  N   GLY A   6       1.607 -25.704   1.007  0.00  0.00    -0.295 N 
ATOM     77  H   GLY A   6       1.018 -26.397   0.503  0.00  0.00    +0.150 HD
BRANCH  74  78
ATOM     78  CA  LYS A   5       3.375 -26.419  -0.518  0.00  0.00    +0.149 C 
BRANCH  78  80
ATOM     79  C   GLY A   4       5.830 -26.536  -0.517  0.00  0.00    +0.243 C 
ATOM     80  N   LYS A   5       4.643 -27.050  -0.194  0.00  0.00    -0.297 N 
ATOM     81  H   LYS A   5       4.624 -27.954   0.319  0.00  0.00    +0.150 HD
ATOM     82  O   GLY A   4       5.993 -25.498  -1.198  0.00  0.00    -0.273 OA
BRANCH  79  83
ATOM     83  CA  GLY A   4       7.014 -27.337   0.024  0.00  0.00    +0.176 C 
BRANCH  83  86
ATOM     84  C   LEU A   3       9.443 -27.405  -0.108  0.00  0.00    +0.241 C 
ATOM     85  O   LEU A   3       9.485 -28.465   0.520  0.00  0.00    -0.273 OA
ATOM     86  N   GLY A   4       8.295 -26.798  -0.398  0.00  0.00    -0.295 N 
ATOM     87  H   GLY A   4       8.316 -25.912  -0.942  0.00  0.00    +0.150 HD
BRANCH  84  88
ATOM     88  CA  LEU A   3      10.724 -26.700  -0.518  0.00  0.00    +0.149 C 
BRANCH  88  90
ATOM     89  C   PRO A   2      11.222 -26.038  -2.863  0.00  0.00    +0.245 C 
ATOM     90  N   LEU A   3      10.627 -25.818  -1.692  0.00  0.00    -0.297 N 
ATOM     91  H   LEU A   3      10.050 -24.958  -1.600  0.00  0.00    +0.150 HD
ATOM     92  O   PRO A   2      11.948 -27.041  -3.087  0.00  0.00    -0.273 OA
BRANCH  89  96
ATOM     93  C   ARG A   1      13.250 -24.138  -4.342  0.00  0.00    +0.242 C 
ATOM     94  O   ARG A   1      13.216 -23.646  -3.237  0.00  0.00    -0.273 OA
ATOM     95  N   PRO A   2      12.180 -24.793  -4.802  0.00  0.00    -0.264 N 
ATOM     96  CA  PRO A   2      11.012 -24.971  -3.960  0.00  0.00    +0.174 C 
ATOM     97  CB  PRO A   2       9.894 -25.329  -4.957  0.00  0.00    -0.000 C 
ATOM     98  CG  PRO A   2      10.544 -25.523  -6.242  0.00  0.00    -0.007 C 
ATOM     99  CD  PRO A   2      11.975 -25.226  -6.205  0.00  0.00    +0.120 C 
BRANCH  93 100
ATOM    100  CA  ARG A   1      14.530 -24.005  -5.232  0.00  0.00    +0.145 C 
BRANCH 100 101
ATOM    101  N   ARG A   1      15.357 -22.858  -4.856  0.00  0.00    -0.238 NA
ATOM    102  H   ARG A   1      15.027 -22.298  -4.044  0.00  0.00    +0.142 HD
ENDBRANCH 100 101
BRANCH 100 103
ATOM    103  CB  ARG A   1      15.332 -25.312  -5.214  0.00  0.00    +0.030 C 
BRANCH 103 104
ATOM    104  CG  ARG A   1      15.714 -25.787  -3.833  0.00  0.00    +0.045 C 
BRANCH 104 105
ATOM    105  CD  ARG A   1      16.408 -27.111  -4.004  0.00  0.00    +0.174 C 
BRANCH 105 106
ATOM    106  NE  ARG A   1      17.458 -27.223  -3.034  0.00  0.00    -0.265 N 
ATOM    107  CZ  ARG A   1      17.311 -27.776  -1.837  0.00  0.00    +0.342 C 
ATOM    108  NH2 ARG A   1      18.372 -27.853  -1.024  0.00  0.00    -0.292 N 
ATOM    109 HH21 ARG A   1      18.275 -28.283  -0.082  0.00  0.00    +0.255 HD
ATOM    110 HH22 ARG A   1      19.293 -27.483  -1.334  0.00  0.00    +0.255 HD
ATOM    111  NH1 ARG A   1      16.115 -28.246  -1.445  0.00  0.00    -0.292 N 
ATOM    112 HH11 ARG A   1      16.009 -28.678  -0.505  0.00  0.00    +0.255 HD
ATOM    113 HH12 ARG A   1      15.295 -28.178  -2.082  0.00  0.00    +0.255 HD
ATOM    114  HE  ARG A   1      18.395 -26.847  -3.285  0.00  0.00    +0.259 HD
ENDBRANCH 105 106
ENDBRANCH 104 105
ENDBRANCH 103 104
ENDBRANCH 100 103
ENDBRANCH  93 100
ENDBRANCH  89  96
ENDBRANCH  88  90
BRANCH  88 115
ATOM    115  CB  LEU A   3      11.190 -25.882   0.662  0.00  0.00    +0.029 C 
BRANCH 115 116
ATOM    116  CG  LEU A   3      12.573 -25.292   0.528  0.00  0.00    +0.002 C 
ATOM    117  CD2 LEU A   3      12.925 -24.361   1.698  0.00  0.00    +0.000 C 
ATOM    118  CD1 LEU A   3      13.607 -26.392   0.492  0.00  0.00    +0.000 C 
ENDBRANCH 115 116
ENDBRANCH  88 115
ENDBRANCH  84  88
ENDBRANCH  83  86
ENDBRANCH  79  83
ENDBRANCH  78  80
BRANCH  78 119
ATOM    119  CB  LYS A   5       2.360 -27.499  -0.944  0.00  0.00    +0.029 C 
BRANCH 119 120
ATOM    120  CG  LYS A   5       2.909 -28.536  -1.930  0.00  0.00    +0.000 C 
BRANCH 120 121
ATOM    121  CD  LYS A   5       2.943 -28.091  -3.386  0.00  0.00    -0.024 C 
BRANCH 121 122
ATOM    122  CE  LYS A   5       3.499 -26.695  -3.585  0.00  0.00    -0.086 C 
BRANCH 122 123
ATOM    123  NZ  LYS A   5       2.500 -25.601  -3.326  0.00  0.00    +0.380 N 
ATOM    124  HZ1 LYS A   5       2.166 -25.664  -2.343  0.00  0.00    -0.089 HD
ATOM    125  HZ2 LYS A   5       2.951 -24.677  -3.482  0.00  0.00    -0.089 HD
ATOM    126  HZ3 LYS A   5       1.694 -25.708  -3.975  0.00  0.00    -0.089 HD
ENDBRANCH 122 123
ENDBRANCH 121 122
ENDBRANCH 120 121
ENDBRANCH 119 120
ENDBRANCH  78 119
ENDBRANCH  74  78
ENDBRANCH  73  76
ENDBRANCH  69  73
ENDBRANCH   1  70
BRANCH   1 127
ATOM    127  CB  LYS A   7      -3.524 -24.162   3.540  0.00  0.00    +0.029 C 
BRANCH 127 128
ATOM    128  CG  LYS A   7      -3.542 -25.494   4.311  0.00  0.00    +0.000 C 
BRANCH 128 129
ATOM    129  CD  LYS A   7      -2.166 -26.116   4.625  0.00  0.00    -0.024 C 
BRANCH 129 130
ATOM    130  CE  LYS A   7      -1.215 -25.213   5.425  0.00  0.00    -0.086 C 
BRANCH 130 131
ATOM    131  NZ  LYS A   7      -1.690 -24.883   6.808  0.00  0.00    +0.380 N 
ATOM    132  HZ1 LYS A   7      -1.805 -25.761   7.353  0.00  0.00    -0.089 HD
ATOM    133  HZ2 LYS A   7      -0.991 -24.272   7.277  0.00  0.00    -0.089 HD
ATOM    134  HZ3 LYS A   7      -2.603 -24.388   6.751  0.00  0.00    -0.089 HD
ENDBRANCH 130 131
ENDBRANCH 129 130
ENDBRANCH 128 129
ENDBRANCH 127 128
ENDBRANCH   1 127
TORSDOF 53
REMARK  Name = ../refined-set-2016/4c2v/4c2v_pocket.pdb
REMARK  259 active torsions:
REMARK  status: ('A' for Active; 'I' for Inactive)
REMARK    1  A    between atoms: _1  and  _3
REMARK    2  A    between atoms: _3  and  _4
REMARK    3  A    between atoms: _3  and  _6
REMARK    4  A    between atoms: _6  and  _7
REMARK    5  A    between atoms: _7  and  _8
REMARK    6  A    between atoms: _8  and  _9
REMARK    7  A    between atoms: _19  and  _20
REMARK    8  A    between atoms: _25  and  _27
REMARK    9  A    between atoms: _27  and  _28
REMARK   10  A    between atoms: _27  and  _30
REMARK   11  A    between atoms: _30  and  _31
REMARK   12  A    between atoms: _34  and  _36
REMARK   13  A    between atoms: _36  and  _37
REMARK   14  A    between atoms: _39  and  _41
REMARK   15  A    between atoms: _41  and  _42
REMARK   16  A    between atoms: _41  and  _44
REMARK   17  A    between atoms: _44  and  _45
REMARK   18  A    between atoms: _45  and  _46
REMARK   19  A    between atoms: _46  and  _47
REMARK   20  A    between atoms: _47  and  _48
REMARK   21  A    between atoms: _52  and  _54
REMARK   22  A    between atoms: _54  and  _55
REMARK   23  A    between atoms: _57  and  _59
REMARK   24  A    between atoms: _59  and  _60
REMARK   25  A    between atoms: _59  and  _62
REMARK   26  A    between atoms: _62  and  _63
REMARK   27  A    between atoms: _63  and  _64
REMARK   28  A    between atoms: _64  and  _65
REMARK   29  A    between atoms: _65  and  _66
REMARK   30  A    between atoms: _70  and  _72
REMARK   31  A    between atoms: _72  and  _73
REMARK   32  A    between atoms: _72  and  _75
REMARK   33  A    between atoms: _75  and  _76
REMARK   34  A    between atoms: _82  and  _84
REMARK   35  A    between atoms: _84  and  _85
REMARK   36  A    between atoms: _87  and  _89
REMARK   37  A    between atoms: _89  and  _90
REMARK   38  A    between atoms: _89  and  _92
REMARK   39  A    between atoms: _92  and  _93
REMARK   40  A    between atoms: _98  and  _100
REMARK   41  A    between atoms: _100  and  _101
REMARK   42  A    between atoms: _100  and  _103
REMARK   43  A    between atoms: _106  and  _108
REMARK   44  A    between atoms: _108  and  _109
REMARK   45  A    between atoms: _108  and  _111
REMARK   46  A    between atoms: _111  and  _112
REMARK   47  A    between atoms: _117  and  _118
REMARK   48  A    between atoms: _120  and  _122
REMARK   49  A    between atoms: _122  and  _123
REMARK   50  A    between atoms: _122  and  _125
REMARK   51  A    between atoms: _125  and  _126
REMARK   52  A    between atoms: _129  and  _131
REMARK   53  A    between atoms: _131  and  _132
REMARK   54  A    between atoms: _135  and  _137
REMARK   55  A    between atoms: _137  and  _138
REMARK   56  A    between atoms: _137  and  _140
REMARK   57  A    between atoms: _140  and  _141
REMARK   58  A    between atoms: _141  and  _142
REMARK   59  A    between atoms: _144  and  _146
REMARK   60  A    between atoms: _146  and  _147
REMARK   61  A    between atoms: _150  and  _152
REMARK   62  A    between atoms: _152  and  _153
REMARK   63  A    between atoms: _152  and  _155
REMARK   64  A    between atoms: _155  and  _156
REMARK   65  A    between atoms: _159  and  _161
REMARK   66  A    between atoms: _161  and  _162
REMARK   67  A    between atoms: _161  and  _164
REMARK   68  A    between atoms: _164  and  _165
REMARK   69  A    between atoms: _165  and  _166
REMARK   70  A    between atoms: _166  and  _167
REMARK   71  A    between atoms: _167  and  _168
REMARK   72  A    between atoms: _172  and  _174
REMARK   73  A    between atoms: _174  and  _175
REMARK   74  A    between atoms: _174  and  _177
REMARK   75  A    between atoms: _180  and  _182
REMARK   76  A    between atoms: _182  and  _183
REMARK   77  A    between atoms: _182  and  _185
REMARK   78  A    between atoms: _185  and  _186
REMARK   79  A    between atoms: _189  and  _191
REMARK   80  A    between atoms: _191  and  _192
REMARK   81  A    between atoms: _191  and  _194
REMARK   82  A    between atoms: _194  and  _195
REMARK   83  A    between atoms: _198  and  _200
REMARK   84  A    between atoms: _200  and  _201
REMARK   85  A    between atoms: _200  and  _203
REMARK   86  A    between atoms: _203  and  _204
REMARK   87  A    between atoms: _204  and  _205
REMARK   88  A    between atoms: _210  and  _212
REMARK   89  A    between atoms: _212  and  _213
REMARK   90  A    between atoms: _212  and  _215
REMARK   91  A    between atoms: _215  and  _216
REMARK   92  A    between atoms: _219  and  _221
REMARK   93  A    between atoms: _221  and  _222
REMARK   94  A    between atoms: _221  and  _224
REMARK   95  A    between atoms: _224  and  _225
REMARK   96  A    between atoms: _225  and  _226
REMARK   97  A    between atoms: _226  and  _227
REMARK   98  A    between atoms: _236  and  _238
REMARK   99  A    between atoms: _238  and  _239
REMARK  100  A    between atoms: _238  and  _241
REMARK  101  A    between atoms: _241  and  _242
REMARK  102  A    between atoms: _242  and  _243
REMARK  103  A    between atoms: _243  and  _244
REMARK  104  A    between atoms: _253  and  _255
REMARK  105  A    between atoms: _255  and  _256
REMARK  106  A    between atoms: _255  and  _258
REMARK  107  A    between atoms: _258  and  _259
REMARK  108  A    between atoms: _259  and  _260
REMARK  109  A    between atoms: _263  and  _265
REMARK  110  A    between atoms: _265  and  _266
REMARK  111  A    between atoms: _265  and  _268
REMARK  112  A    between atoms: _268  and  _269
REMARK  113  A    between atoms: _272  and  _274
REMARK  114  A    between atoms: _274  and  _275
REMARK  115  A    between atoms: _274  and  _277
REMARK  116  A    between atoms: _277  and  _278
REMARK  117  A    between atoms: _278  and  _279
REMARK  118  A    between atoms: _282  and  _284
REMARK  119  A    between atoms: _284  and  _285
REMARK  120  A    between atoms: _284  and  _287
REMARK  121  A    between atoms: _287  and  _288
REMARK  122  A    between atoms: _291  and  _293
REMARK  123  A    between atoms: _293  and  _294
REMARK  124  A    between atoms: _293  and  _296
REMARK  125  A    between atoms: _296  and  _297
REMARK  126  A    between atoms: _297  and  _298
REMARK  127  A    between atoms: _303  and  _305
REMARK  128  A    between atoms: _305  and  _306
REMARK  129  A    between atoms: _305  and  _308
REMARK  130  A    between atoms: _308  and  _309
REMARK  131  A    between atoms: _311  and  _313
REMARK  132  A    between atoms: _313  and  _314
REMARK  133  A    between atoms: _313  and  _316
REMARK  134  A    between atoms: _316  and  _317
REMARK  135  A    between atoms: _320  and  _322
REMARK  136  A    between atoms: _322  and  _323
REMARK  137  A    between atoms: _322  and  _325
REMARK  138  A    between atoms: _325  and  _326
REMARK  139  A    between atoms: _326  and  _327
REMARK  140  A    between atoms: _327  and  _328
REMARK  141  A    between atoms: _337  and  _339
REMARK  142  A    between atoms: _339  and  _340
REMARK  143  A    between atoms: _339  and  _342
REMARK  144  A    between atoms: _342  and  _343
REMARK  145  A    between atoms: _343  and  _344
REMARK  146  A    between atoms: _346  and  _348
REMARK  147  A    between atoms: _348  and  _349
REMARK  148  A    between atoms: _348  and  _351
REMARK  149  A    between atoms: _351  and  _352
REMARK  150  A    between atoms: _355  and  _357
REMARK  151  A    between atoms: _357  and  _358
REMARK  152  A    between atoms: _357  and  _360
REMARK  153  A    between atoms: _360  and  _361
REMARK  154  A    between atoms: _364  and  _366
REMARK  155  A    between atoms: _366  and  _367
REMARK  156  A    between atoms: _366  and  _369
REMARK  157  A    between atoms: _369  and  _370
REMARK  158  A    between atoms: _370  and  _371
REMARK  159  A    between atoms: _373  and  _375
REMARK  160  A    between atoms: _375  and  _376
REMARK  161  A    between atoms: _375  and  _378
REMARK  162  A    between atoms: _378  and  _379
REMARK  163  A    between atoms: _382  and  _384
REMARK  164  A    between atoms: _384  and  _385
REMARK  165  A    between atoms: _384  and  _387
REMARK  166  A    between atoms: _387  and  _388
REMARK  167  A    between atoms: _388  and  _389
REMARK  168  A    between atoms: _392  and  _394
REMARK  169  A    between atoms: _394  and  _395
REMARK  170  A    between atoms: _394  and  _397
REMARK  171  A    between atoms: _397  and  _398
REMARK  172  A    between atoms: _404  and  _406
REMARK  173  A    between atoms: _406  and  _407
REMARK  174  A    between atoms: _411  and  _412
REMARK  175  A    between atoms: _417  and  _419
REMARK  176  A    between atoms: _419  and  _420
REMARK  177  A    between atoms: _419  and  _422
REMARK  178  A    between atoms: _422  and  _423
REMARK  179  A    between atoms: _423  and  _424
REMARK  180  A    between atoms: _424  and  _425
REMARK  181  A    between atoms: _434  and  _436
REMARK  182  A    between atoms: _436  and  _437
REMARK  183  A    between atoms: _439  and  _441
REMARK  184  A    between atoms: _441  and  _442
REMARK  185  A    between atoms: _441  and  _444
REMARK  186  A    between atoms: _444  and  _445
REMARK  187  A    between atoms: _445  and  _446
REMARK  188  A    between atoms: _449  and  _451
REMARK  189  A    between atoms: _451  and  _452
REMARK  190  A    between atoms: _451  and  _454
REMARK  191  A    between atoms: _454  and  _455
REMARK  192  A    between atoms: _458  and  _460
REMARK  193  A    between atoms: _460  and  _461
REMARK  194  A    between atoms: _460  and  _463
REMARK  195  A    between atoms: _463  and  _464
REMARK  196  A    between atoms: _464  and  _465
REMARK  197  A    between atoms: _465  and  _466
REMARK  198  A    between atoms: _466  and  _467
REMARK  199  A    between atoms: _471  and  _473
REMARK  200  A    between atoms: _473  and  _474
REMARK  201  A    between atoms: _473  and  _476
REMARK  202  A    between atoms: _476  and  _477
REMARK  203  A    between atoms: _477  and  _478
REMARK  204  A    between atoms: _481  and  _483
REMARK  205  A    between atoms: _483  and  _484
REMARK  206  A    between atoms: _483  and  _486
REMARK  207  A    between atoms: _486  and  _487
REMARK  208  A    between atoms: _487  and  _488
REMARK  209  A    between atoms: _488  and  _489
REMARK  210  A    between atoms: _489  and  _490
REMARK  211  A    between atoms: _494  and  _496
REMARK  212  A    between atoms: _496  and  _497
REMARK  213  A    between atoms: _496  and  _499
REMARK  214  A    between atoms: _499  and  _500
REMARK  215  A    between atoms: _500  and  _501
REMARK  216  A    between atoms: _504  and  _506
REMARK  217  A    between atoms: _506  and  _507
REMARK  218  A    between atoms: _506  and  _509
REMARK  219  A    between atoms: _509  and  _510
REMARK  220  A    between atoms: _515  and  _517
REMARK  221  A    between atoms: _517  and  _518
REMARK  222  A    between atoms: _517  and  _520
REMARK  223  A    between atoms: _520  and  _521
REMARK  224  A    between atoms: _524  and  _526
REMARK  225  A    between atoms: _526  and  _527
REMARK  226  A    between atoms: _526  and  _529
REMARK  227  A    between atoms: _529  and  _530
REMARK  228  A    between atoms: _533  and  _535
REMARK  229  A    between atoms: _535  and  _536
REMARK  230  A    between atoms: _535  and  _538
REMARK  231  A    between atoms: _538  and  _539
REMARK  232  A    between atoms: _539  and  _540
REMARK  233  A    between atoms: _542  and  _544
REMARK  234  A    between atoms: _544  and  _545
REMARK  235  A    between atoms: _544  and  _547
REMARK  236  A    between atoms: _547  and  _548
REMARK  237  A    between atoms: _548  and  _549
REMARK  238  A    between atoms: _549  and  _550
REMARK  239  A    between atoms: _550  and  _551
REMARK  240  A    between atoms: _555  and  _557
REMARK  241  A    between atoms: _557  and  _558
REMARK  242  A    between atoms: _557  and  _560
REMARK  243  A    between atoms: _560  and  _561
REMARK  244  A    between atoms: _564  and  _566
REMARK  245  A    between atoms: _566  and  _567
REMARK  246  A    between atoms: _570  and  _572
REMARK  247  A    between atoms: _572  and  _573
REMARK  248  A    between atoms: _572  and  _575
REMARK  249  A    between atoms: _575  and  _576
REMARK  250  A    between atoms: _579  and  _581
REMARK  251  A    between atoms: _581  and  _582
REMARK  252  A    between atoms: _581  and  _584
REMARK  253  A    between atoms: _584  and  _585
REMARK  254  A    between atoms: _591  and  _593
REMARK  255  A    between atoms: _593  and  _594
REMARK  256  A    between atoms: _596  and  _598
REMARK  257  A    between atoms: _598  and  _599
REMARK  258  A    between atoms: _598  and  _601
REMARK  259  A    between atoms: _601  and  _602
REMARK                            x       y       z     vdW  Elec       q    Type
REMARK                         _______ _______ _______ _____ _____    ______ ____
ROOT
ATOM      1  CA  LYS A   4       6.652 -18.362   1.548  0.00  0.00    +0.149 C 
ENDROOT
BRANCH   1   2
ATOM      2  C   LYS A   4       5.982 -17.291   0.652  0.00  0.00    +0.241 C 
ATOM      3  O   LYS A   4       5.920 -16.105   1.068  0.00  0.00    -0.273 OA
ATOM      4  N   VAL A   5       5.519 -17.688  -0.525  0.00  0.00    -0.297 N 
ATOM      5  H   VAL A   5       5.539 -18.700  -0.766  0.00  0.00    +0.150 HD
BRANCH   4   6
ATOM      6  CA  VAL A   5       4.961 -16.696  -1.528  0.00  0.00    +0.149 C 
BRANCH   6   7
ATOM      7  C   VAL A   5       3.488 -16.934  -1.643  0.00  0.00    +0.241 C 
ATOM      8  N   LEU A   6       2.714 -15.915  -1.404  0.00  0.00    -0.298 N 
ATOM      9  H   LEU A   6       3.153 -14.999  -1.181  0.00  0.00    +0.150 HD
ATOM     10  O   VAL A   5       3.088 -18.044  -1.990  0.00  0.00    -0.273 OA
BRANCH   8  11
ATOM     11  CA  LEU A   6       1.228 -16.002  -1.436  0.00  0.00    +0.137 C 
BRANCH  11  12
ATOM     12  C   LEU A   6       0.698 -15.054  -2.503  0.00  0.00    +0.227 C 
ATOM     13  O   LEU A   6       1.145 -13.930  -2.582  0.00  0.00    -0.286 OA
ENDBRANCH  11  12
BRANCH  11  14
ATOM     14  CB  LEU A   6       0.646 -15.632  -0.093  0.00  0.00    +0.028 C 
BRANCH  14  15
ATOM     15  CG  LEU A   6       1.307 -16.538   1.007  0.00  0.00    +0.002 C 
ATOM     16  CD2 LEU A   6       1.889 -15.676   2.104  0.00  0.00    +0.000 C 
ATOM     17  CD1 LEU A   6       0.385 -17.568   1.460  0.00  0.00    +0.000 C 
ENDBRANCH  14  15
ENDBRANCH  11  14
ENDBRANCH   8  11
ENDBRANCH   6   7
BRANCH   6  18
ATOM     18  CB  VAL A   5       5.595 -16.896  -2.912  0.00  0.00    +0.027 C 
ATOM     19  CG2 VAL A   5       7.089 -16.743  -2.825  0.00  0.00    +0.002 C 
ATOM     20  CG1 VAL A   5       5.012 -15.900  -3.917  0.00  0.00    +0.002 C 
ENDBRANCH   6  18
ENDBRANCH   4   6
ENDBRANCH   1   2
BRANCH   1  22
ATOM     21  C   LEU A   3       9.029 -18.120   1.130  0.00  0.00    +0.241 C 
ATOM     22  N   LYS A   4       7.985 -17.877   1.875  0.00  0.00    -0.297 N 
ATOM     23  H   LYS A   4       8.111 -17.313   2.739  0.00  0.00    +0.150 HD
ATOM     24  O   LEU A   3       9.030 -18.929   0.202  0.00  0.00    -0.273 OA
BRANCH  21  25
ATOM     25  CA  LEU A   3      10.321 -17.453   1.504  0.00  0.00    +0.149 C 
BRANCH  25  28
ATOM     26  C   ALA A   2      11.907 -18.510   3.042  0.00  0.00    +0.241 C 
ATOM     27  O   ALA A   2      11.785 -17.614   3.847  0.00  0.00    -0.273 OA
ATOM     28  N   LEU A   3      11.283 -18.488   1.836  0.00  0.00    -0.297 N 
ATOM     29  H   LEU A   3      11.499 -19.227   1.137  0.00  0.00    +0.150 HD
BRANCH  26  30
ATOM     30  CA  ALA A   2      12.881 -19.679   3.287  0.00  0.00    +0.149 C 
ATOM     31  CB  ALA A   2      12.205 -20.874   3.890  0.00  0.00    +0.031 C 
BRANCH  30  33
ATOM     32  C   MET A   1      15.221 -19.260   3.800  0.00  0.00    +0.238 C 
ATOM     33  N   ALA A   2      13.985 -19.243   4.176  0.00  0.00    -0.297 N 
ATOM     34  H   ALA A   2      13.756 -18.912   5.135  0.00  0.00    +0.150 HD
ATOM     35  O   MET A   1      15.563 -19.786   2.738  0.00  0.00    -0.274 OA
BRANCH  32  36
ATOM     36  CA  MET A   1      16.182 -18.508   4.738  0.00  0.00    +0.146 C 
BRANCH  36  37
ATOM     37  N   MET A   1      17.507 -18.531   4.131  0.00  0.00    -0.238 NA
ATOM     38  H   MET A   1      17.565 -18.449   3.096  0.00  0.00    +0.142 HD
ENDBRANCH  36  37
BRANCH  36  39
ATOM     39  CB  MET A   1      15.749 -17.138   5.158  0.00  0.00    +0.038 C 
BRANCH  39  40
ATOM     40  CG  MET A   1      15.574 -16.154   4.023  0.00  0.00    +0.060 C 
BRANCH  40  41
ATOM     41  SD  MET A   1      14.842 -14.585   4.574  0.00  0.00    -0.139 S 
ATOM     42  CE  MET A   1      16.080 -13.951   5.686  0.00  0.00    +0.069 C 
ENDBRANCH  40  41
ENDBRANCH  39  40
ENDBRANCH  36  39
ENDBRANCH  32  36
ENDBRANCH  30  33
ENDBRANCH  26  30
ENDBRANCH  25  28
BRANCH  25  43
ATOM     43  CB  LEU A   3      10.750 -16.630   0.302  0.00  0.00    +0.029 C 
BRANCH  43  44
ATOM     44  CG  LEU A   3      11.740 -15.583   0.473  0.00  0.00    +0.002 C 
ATOM     45  CD2 LEU A   3      11.248 -14.458   1.390  0.00  0.00    +0.000 C 
ATOM     46  CD1 LEU A   3      12.015 -15.010  -0.921  0.00  0.00    +0.000 C 
ENDBRANCH  43  44
ENDBRANCH  25  43
ENDBRANCH  21  25
ENDBRANCH   1  22
BRANCH   1  47
ATOM     47  CB  LYS A   4       5.791 -18.685   2.726  0.00  0.00    +0.029 C 
BRANCH  47  48
ATOM     48  CG  LYS A   4       4.392 -19.157   2.324  0.00  0.00    +0.000 C 
BRANCH  48  49
ATOM     49  CD  LYS A   4       3.725 -19.894   3.475  0.00  0.00    -0.024 C 
BRANCH  49  50
ATOM     50  CE  LYS A   4       2.896 -21.093   3.014  0.00  0.00    -0.086 C 
BRANCH  50  51
ATOM     51  NZ  LYS A   4       3.045 -22.189   4.045  0.00  0.00    +0.380 N 
ATOM     52  HZ1 LYS A   4       2.701 -21.847   4.965  0.00  0.00    -0.089 HD
ATOM     53  HZ2 LYS A   4       4.047 -22.454   4.125  0.00  0.00    -0.089 HD
ATOM     54  HZ3 LYS A   4       2.488 -23.017   3.752  0.00  0.00    -0.089 HD
ENDBRANCH  50  51
ENDBRANCH  49  50
ENDBRANCH  48  49
ENDBRANCH  47  48
ENDBRANCH   1  47
TORSDOF 25
REMARK  Name = ../refined-set-2016/4c2v/4c2v_pocket.pdb
REMARK  259 active torsions:
REMARK  status: ('A' for Active; 'I' for Inactive)
REMARK    1  A    between atoms: _1  and  _3
REMARK    2  A    between atoms: _3  and  _4
REMARK    3  A    between atoms: _3  and  _6
REMARK    4  A    between atoms: _6  and  _7
REMARK    5  A    between atoms: _7  and  _8
REMARK    6  A    between atoms: _8  and  _9
REMARK    7  A    between atoms: _19  and  _20
REMARK    8  A    between atoms: _25  and  _27
REMARK    9  A    between atoms: _27  and  _28
REMARK   10  A    between atoms: _27  and  _30
REMARK   11  A    between atoms: _30  and  _31
REMARK   12  A    between atoms: _34  and  _36
REMARK   13  A    between atoms: _36  and  _37
REMARK   14  A    between atoms: _39  and  _41
REMARK   15  A    between atoms: _41  and  _42
REMARK   16  A    between atoms: _41  and  _44
REMARK   17  A    between atoms: _44  and  _45
REMARK   18  A    between atoms: _45  and  _46
REMARK   19  A    between atoms: _46  and  _47
REMARK   20  A    between atoms: _47  and  _48
REMARK   21  A    between atoms: _52  and  _54
REMARK   22  A    between atoms: _54  and  _55
REMARK   23  A    between atoms: _57  and  _59
REMARK   24  A    between atoms: _59  and  _60
REMARK   25  A    between atoms: _59  and  _62
REMARK   26  A    between atoms: _62  and  _63
REMARK   27  A    between atoms: _63  and  _64
REMARK   28  A    between atoms: _64  and  _65
REMARK   29  A    between atoms: _65  and  _66
REMARK   30  A    between atoms: _70  and  _72
REMARK   31  A    between atoms: _72  and  _73
REMARK   32  A    between atoms: _72  and  _75
REMARK   33  A    between atoms: _75  and  _76
REMARK   34  A    between atoms: _82  and  _84
REMARK   35  A    between atoms: _84  and  _85
REMARK   36  A    between atoms: _87  and  _89
REMARK   37  A    between atoms: _89  and  _90
REMARK   38  A    between atoms: _89  and  _92
REMARK   39  A    between atoms: _92  and  _93
REMARK   40  A    between atoms: _98  and  _100
REMARK   41  A    between atoms: _100  and  _101
REMARK   42  A    between atoms: _100  and  _103
REMARK   43  A    between atoms: _106  and  _108
REMARK   44  A    between atoms: _108  and  _109
REMARK   45  A    between atoms: _108  and  _111
REMARK   46  A    between atoms: _111  and  _112
REMARK   47  A    between atoms: _117  and  _118
REMARK   48  A    between atoms: _120  and  _122
REMARK   49  A    between atoms: _122  and  _123
REMARK   50  A    between atoms: _122  and  _125
REMARK   51  A    between atoms: _125  and  _126
REMARK   52  A    between atoms: _129  and  _131
REMARK   53  A    between atoms: _131  and  _132
REMARK   54  A    between atoms: _135  and  _137
REMARK   55  A    between atoms: _137  and  _138
REMARK   56  A    between atoms: _137  and  _140
REMARK   57  A    between atoms: _140  and  _141
REMARK   58  A    between atoms: _141  and  _142
REMARK   59  A    between atoms: _144  and  _146
REMARK   60  A    between atoms: _146  and  _147
REMARK   61  A    between atoms: _150  and  _152
REMARK   62  A    between atoms: _152  and  _153
REMARK   63  A    between atoms: _152  and  _155
REMARK   64  A    between atoms: _155  and  _156
REMARK   65  A    between atoms: _159  and  _161
REMARK   66  A    between atoms: _161  and  _162
REMARK   67  A    between atoms: _161  and  _164
REMARK   68  A    between atoms: _164  and  _165
REMARK   69  A    between atoms: _165  and  _166
REMARK   70  A    between atoms: _166  and  _167
REMARK   71  A    between atoms: _167  and  _168
REMARK   72  A    between atoms: _172  and  _174
REMARK   73  A    between atoms: _174  and  _175
REMARK   74  A    between atoms: _174  and  _177
REMARK   75  A    between atoms: _180  and  _182
REMARK   76  A    between atoms: _182  and  _183
REMARK   77  A    between atoms: _182  and  _185
REMARK   78  A    between atoms: _185  and  _186
REMARK   79  A    between atoms: _189  and  _191
REMARK   80  A    between atoms: _191  and  _192
REMARK   81  A    between atoms: _191  and  _194
REMARK   82  A    between atoms: _194  and  _195
REMARK   83  A    between atoms: _198  and  _200
REMARK   84  A    between atoms: _200  and  _201
REMARK   85  A    between atoms: _200  and  _203
REMARK   86  A    between atoms: _203  and  _204
REMARK   87  A    between atoms: _204  and  _205
REMARK   88  A    between atoms: _210  and  _212
REMARK   89  A    between atoms: _212  and  _213
REMARK   90  A    between atoms: _212  and  _215
REMARK   91  A    between atoms: _215  and  _216
REMARK   92  A    between atoms: _219  and  _221
REMARK   93  A    between atoms: _221  and  _222
REMARK   94  A    between atoms: _221  and  _224
REMARK   95  A    between atoms: _224  and  _225
REMARK   96  A    between atoms: _225  and  _226
REMARK   97  A    between atoms: _226  and  _227
REMARK   98  A    between atoms: _236  and  _238
REMARK   99  A    between atoms: _238  and  _239
REMARK  100  A    between atoms: _238  and  _241
REMARK  101  A    between atoms: _241  and  _242
REMARK  102  A    between atoms: _242  and  _243
REMARK  103  A    between atoms: _243  and  _244
REMARK  104  A    between atoms: _253  and  _255
REMARK  105  A    between atoms: _255  and  _256
REMARK  106  A    between atoms: _255  and  _258
REMARK  107  A    between atoms: _258  and  _259
REMARK  108  A    between atoms: _259  and  _260
REMARK  109  A    between atoms: _263  and  _265
REMARK  110  A    between atoms: _265  and  _266
REMARK  111  A    between atoms: _265  and  _268
REMARK  112  A    between atoms: _268  and  _269
REMARK  113  A    between atoms: _272  and  _274
REMARK  114  A    between atoms: _274  and  _275
REMARK  115  A    between atoms: _274  and  _277
REMARK  116  A    between atoms: _277  and  _278
REMARK  117  A    between atoms: _278  and  _279
REMARK  118  A    between atoms: _282  and  _284
REMARK  119  A    between atoms: _284  and  _285
REMARK  120  A    between atoms: _284  and  _287
REMARK  121  A    between atoms: _287  and  _288
REMARK  122  A    between atoms: _291  and  _293
REMARK  123  A    between atoms: _293  and  _294
REMARK  124  A    between atoms: _293  and  _296
REMARK  125  A    between atoms: _296  and  _297
REMARK  126  A    between atoms: _297  and  _298
REMARK  127  A    between atoms: _303  and  _305
REMARK  128  A    between atoms: _305  and  _306
REMARK  129  A    between atoms: _305  and  _308
REMARK  130  A    between atoms: _308  and  _309
REMARK  131  A    between atoms: _311  and  _313
REMARK  132  A    between atoms: _313  and  _314
REMARK  133  A    between atoms: _313  and  _316
REMARK  134  A    between atoms: _316  and  _317
REMARK  135  A    between atoms: _320  and  _322
REMARK  136  A    between atoms: _322  and  _323
REMARK  137  A    between atoms: _322  and  _325
REMARK  138  A    between atoms: _325  and  _326
REMARK  139  A    between atoms: _326  and  _327
REMARK  140  A    between atoms: _327  and  _328
REMARK  141  A    between atoms: _337  and  _339
REMARK  142  A    between atoms: _339  and  _340
REMARK  143  A    between atoms: _339  and  _342
REMARK  144  A    between atoms: _342  and  _343
REMARK  145  A    between atoms: _343  and  _344
REMARK  146  A    between atoms: _346  and  _348
REMARK  147  A    between atoms: _348  and  _349
REMARK  148  A    between atoms: _348  and  _351
REMARK  149  A    between atoms: _351  and  _352
REMARK  150  A    between atoms: _355  and  _357
REMARK  151  A    between atoms: _357  and  _358
REMARK  152  A    between atoms: _357  and  _360
REMARK  153  A    between atoms: _360  and  _361
REMARK  154  A    between atoms: _364  and  _366
REMARK  155  A    between atoms: _366  and  _367
REMARK  156  A    between atoms: _366  and  _369
REMARK  157  A    between atoms: _369  and  _370
REMARK  158  A    between atoms: _370  and  _371
REMARK  159  A    between atoms: _373  and  _375
REMARK  160  A    between atoms: _375  and  _376
REMARK  161  A    between atoms: _375  and  _378
REMARK  162  A    between atoms: _378  and  _379
REMARK  163  A    between atoms: _382  and  _384
REMARK  164  A    between atoms: _384  and  _385
REMARK  165  A    between atoms: _384  and  _387
REMARK  166  A    between atoms: _387  and  _388
REMARK  167  A    between atoms: _388  and  _389
REMARK  168  A    between atoms: _392  and  _394
REMARK  169  A    between atoms: _394  and  _395
REMARK  170  A    between atoms: _394  and  _397
REMARK  171  A    between atoms: _397  and  _398
REMARK  172  A    between atoms: _404  and  _406
REMARK  173  A    between atoms: _406  and  _407
REMARK  174  A    between atoms: _411  and  _412
REMARK  175  A    between atoms: _417  and  _419
REMARK  176  A    between atoms: _419  and  _420
REMARK  177  A    between atoms: _419  and  _422
REMARK  178  A    between atoms: _422  and  _423
REMARK  179  A    between atoms: _423  and  _424
REMARK  180  A    between atoms: _424  and  _425
REMARK  181  A    between atoms: _434  and  _436
REMARK  182  A    between atoms: _436  and  _437
REMARK  183  A    between atoms: _439  and  _441
REMARK  184  A    between atoms: _441  and  _442
REMARK  185  A    between atoms: _441  and  _444
REMARK  186  A    between atoms: _444  and  _445
REMARK  187  A    between atoms: _445  and  _446
REMARK  188  A    between atoms: _449  and  _451
REMARK  189  A    between atoms: _451  and  _452
REMARK  190  A    between atoms: _451  and  _454
REMARK  191  A    between atoms: _454  and  _455
REMARK  192  A    between atoms: _458  and  _460
REMARK  193  A    between atoms: _460  and  _461
REMARK  194  A    between atoms: _460  and  _463
REMARK  195  A    between atoms: _463  and  _464
REMARK  196  A    between atoms: _464  and  _465
REMARK  197  A    between atoms: _465  and  _466
REMARK  198  A    between atoms: _466  and  _467
REMARK  199  A    between atoms: _471  and  _473
REMARK  200  A    between atoms: _473  and  _474
REMARK  201  A    between atoms: _473  and  _476
REMARK  202  A    between atoms: _476  and  _477
REMARK  203  A    between atoms: _477  and  _478
REMARK  204  A    between atoms: _481  and  _483
REMARK  205  A    between atoms: _483  and  _484
REMARK  206  A    between atoms: _483  and  _486
REMARK  207  A    between atoms: _486  and  _487
REMARK  208  A    between atoms: _487  and  _488
REMARK  209  A    between atoms: _488  and  _489
REMARK  210  A    between atoms: _489  and  _490
REMARK  211  A    between atoms: _494  and  _496
REMARK  212  A    between atoms: _496  and  _497
REMARK  213  A    between atoms: _496  and  _499
REMARK  214  A    between atoms: _499  and  _500
REMARK  215  A    between atoms: _500  and  _501
REMARK  216  A    between atoms: _504  and  _506
REMARK  217  A    between atoms: _506  and  _507
REMARK  218  A    between atoms: _506  and  _509
REMARK  219  A    between atoms: _509  and  _510
REMARK  220  A    between atoms: _515  and  _517
REMARK  221  A    between atoms: _517  and  _518
REMARK  222  A    between atoms: _517  and  _520
REMARK  223  A    between atoms: _520  and  _521
REMARK  224  A    between atoms: _524  and  _526
REMARK  225  A    between atoms: _526  and  _527
REMARK  226  A    between atoms: _526  and  _529
REMARK  227  A    between atoms: _529  and  _530
REMARK  228  A    between atoms: _533  and  _535
REMARK  229  A    between atoms: _535  and  _536
REMARK  230  A    between atoms: _535  and  _538
REMARK  231  A    between atoms: _538  and  _539
REMARK  232  A    between atoms: _539  and  _540
REMARK  233  A    between atoms: _542  and  _544
REMARK  234  A    between atoms: _544  and  _545
REMARK  235  A    between atoms: _544  and  _547
REMARK  236  A    between atoms: _547  and  _548
REMARK  237  A    between atoms: _548  and  _549
REMARK  238  A    between atoms: _549  and  _550
REMARK  239  A    between atoms: _550  and  _551
REMARK  240  A    between atoms: _555  and  _557
REMARK  241  A    between atoms: _557  and  _558
REMARK  242  A    between atoms: _557  and  _560
REMARK  243  A    between atoms: _560  and  _561
REMARK  244  A    between atoms: _564  and  _566
REMARK  245  A    between atoms: _566  and  _567
REMARK  246  A    between atoms: _570  and  _572
REMARK  247  A    between atoms: _572  and  _573
REMARK  248  A    between atoms: _572  and  _575
REMARK  249  A    between atoms: _575  and  _576
REMARK  250  A    between atoms: _579  and  _581
REMARK  251  A    between atoms: _581  and  _582
REMARK  252  A    between atoms: _581  and  _584
REMARK  253  A    between atoms: _584  and  _585
REMARK  254  A    between atoms: _591  and  _593
REMARK  255  A    between atoms: _593  and  _594
REMARK  256  A    between atoms: _596  and  _598
REMARK  257  A    between atoms: _598  and  _599
REMARK  258  A    between atoms: _598  and  _601
REMARK  259  A    between atoms: _601  and  _602
REMARK                            x       y       z     vdW  Elec       q    Type
REMARK                         _______ _______ _______ _____ _____    ______ ____
ROOT
ATOM      1  CA  LEU A   1      -6.374 -15.320  -1.117  0.00  0.00    +0.133 C 
ENDROOT
BRANCH   1   2
ATOM      2  N   LEU A   1      -5.957 -15.392  -2.493  0.00  0.00    -0.239 NA
ATOM      3  H   LEU A   1      -5.090 -14.906  -2.799  0.00  0.00    +0.142 HD
ENDBRANCH   1   2
BRANCH   1   4
ATOM      4  C   LEU A   1      -7.671 -14.607  -0.977  0.00  0.00    +0.224 C 
ATOM      5  O   LEU A   1      -8.505 -14.995  -0.140  0.00  0.00    -0.287 OA
ENDBRANCH   1   4
BRANCH   1   6
ATOM      6  CB  LEU A   1      -5.335 -14.597  -0.267  0.00  0.00    +0.025 C 
BRANCH   6   7
ATOM      7  CG  LEU A   1      -3.933 -15.189  -0.153  0.00  0.00    +0.002 C 
ATOM      8  CD2 LEU A   1      -3.925 -16.285   0.880  0.00  0.00    +0.000 C 
ATOM      9  CD1 LEU A   1      -2.999 -14.123   0.355  0.00  0.00    +0.000 C 
ENDBRANCH   6   7
ENDBRANCH   1   6
TORSDOF 4
REMARK  Name = ../refined-set-2016/4c2v/4c2v_pocket.pdb
REMARK  259 active torsions:
REMARK  status: ('A' for Active; 'I' for Inactive)
REMARK    1  A    between atoms: _1  and  _3
REMARK    2  A    between atoms: _3  and  _4
REMARK    3  A    between atoms: _3  and  _6
REMARK    4  A    between atoms: _6  and  _7
REMARK    5  A    between atoms: _7  and  _8
REMARK    6  A    between atoms: _8  and  _9
REMARK    7  A    between atoms: _19  and  _20
REMARK    8  A    between atoms: _25  and  _27
REMARK    9  A    between atoms: _27  and  _28
REMARK   10  A    between atoms: _27  and  _30
REMARK   11  A    between atoms: _30  and  _31
REMARK   12  A    between atoms: _34  and  _36
REMARK   13  A    between atoms: _36  and  _37
REMARK   14  A    between atoms: _39  and  _41
REMARK   15  A    between atoms: _41  and  _42
REMARK   16  A    between atoms: _41  and  _44
REMARK   17  A    between atoms: _44  and  _45
REMARK   18  A    between atoms: _45  and  _46
REMARK   19  A    between atoms: _46  and  _47
REMARK   20  A    between atoms: _47  and  _48
REMARK   21  A    between atoms: _52  and  _54
REMARK   22  A    between atoms: _54  and  _55
REMARK   23  A    between atoms: _57  and  _59
REMARK   24  A    between atoms: _59  and  _60
REMARK   25  A    between atoms: _59  and  _62
REMARK   26  A    between atoms: _62  and  _63
REMARK   27  A    between atoms: _63  and  _64
REMARK   28  A    between atoms: _64  and  _65
REMARK   29  A    between atoms: _65  and  _66
REMARK   30  A    between atoms: _70  and  _72
REMARK   31  A    between atoms: _72  and  _73
REMARK   32  A    between atoms: _72  and  _75
REMARK   33  A    between atoms: _75  and  _76
REMARK   34  A    between atoms: _82  and  _84
REMARK   35  A    between atoms: _84  and  _85
REMARK   36  A    between atoms: _87  and  _89
REMARK   37  A    between atoms: _89  and  _90
REMARK   38  A    between atoms: _89  and  _92
REMARK   39  A    between atoms: _92  and  _93
REMARK   40  A    between atoms: _98  and  _100
REMARK   41  A    between atoms: _100  and  _101
REMARK   42  A    between atoms: _100  and  _103
REMARK   43  A    between atoms: _106  and  _108
REMARK   44  A    between atoms: _108  and  _109
REMARK   45  A    between atoms: _108  and  _111
REMARK   46  A    between atoms: _111  and  _112
REMARK   47  A    between atoms: _117  and  _118
REMARK   48  A    between atoms: _120  and  _122
REMARK   49  A    between atoms: _122  and  _123
REMARK   50  A    between atoms: _122  and  _125
REMARK   51  A    between atoms: _125  and  _126
REMARK   52  A    between atoms: _129  and  _131
REMARK   53  A    between atoms: _131  and  _132
REMARK   54  A    between atoms: _135  and  _137
REMARK   55  A    between atoms: _137  and  _138
REMARK   56  A    between atoms: _137  and  _140
REMARK   57  A    between atoms: _140  and  _141
REMARK   58  A    between atoms: _141  and  _142
REMARK   59  A    between atoms: _144  and  _146
REMARK   60  A    between atoms: _146  and  _147
REMARK   61  A    between atoms: _150  and  _152
REMARK   62  A    between atoms: _152  and  _153
REMARK   63  A    between atoms: _152  and  _155
REMARK   64  A    between atoms: _155  and  _156
REMARK   65  A    between atoms: _159  and  _161
REMARK   66  A    between atoms: _161  and  _162
REMARK   67  A    between atoms: _161  and  _164
REMARK   68  A    between atoms: _164  and  _165
REMARK   69  A    between atoms: _165  and  _166
REMARK   70  A    between atoms: _166  and  _167
REMARK   71  A    between atoms: _167  and  _168
REMARK   72  A    between atoms: _172  and  _174
REMARK   73  A    between atoms: _174  and  _175
REMARK   74  A    between atoms: _174  and  _177
REMARK   75  A    between atoms: _180  and  _182
REMARK   76  A    between atoms: _182  and  _183
REMARK   77  A    between atoms: _182  and  _185
REMARK   78  A    between atoms: _185  and  _186
REMARK   79  A    between atoms: _189  and  _191
REMARK   80  A    between atoms: _191  and  _192
REMARK   81  A    between atoms: _191  and  _194
REMARK   82  A    between atoms: _194  and  _195
REMARK   83  A    between atoms: _198  and  _200
REMARK   84  A    between atoms: _200  and  _201
REMARK   85  A    between atoms: _200  and  _203
REMARK   86  A    between atoms: _203  and  _204
REMARK   87  A    between atoms: _204  and  _205
REMARK   88  A    between atoms: _210  and  _212
REMARK   89  A    between atoms: _212  and  _213
REMARK   90  A    between atoms: _212  and  _215
REMARK   91  A    between atoms: _215  and  _216
REMARK   92  A    between atoms: _219  and  _221
REMARK   93  A    between atoms: _221  and  _222
REMARK   94  A    between atoms: _221  and  _224
REMARK   95  A    between atoms: _224  and  _225
REMARK   96  A    between atoms: _225  and  _226
REMARK   97  A    between atoms: _226  and  _227
REMARK   98  A    between atoms: _236  and  _238
REMARK   99  A    between atoms: _238  and  _239
REMARK  100  A    between atoms: _238  and  _241
REMARK  101  A    between atoms: _241  and  _242
REMARK  102  A    between atoms: _242  and  _243
REMARK  103  A    between atoms: _243  and  _244
REMARK  104  A    between atoms: _253  and  _255
REMARK  105  A    between atoms: _255  and  _256
REMARK  106  A    between atoms: _255  and  _258
REMARK  107  A    between atoms: _258  and  _259
REMARK  108  A    between atoms: _259  and  _260
REMARK  109  A    between atoms: _263  and  _265
REMARK  110  A    between atoms: _265  and  _266
REMARK  111  A    between atoms: _265  and  _268
REMARK  112  A    between atoms: _268  and  _269
REMARK  113  A    between atoms: _272  and  _274
REMARK  114  A    between atoms: _274  and  _275
REMARK  115  A    between atoms: _274  and  _277
REMARK  116  A    between atoms: _277  and  _278
REMARK  117  A    between atoms: _278  and  _279
REMARK  118  A    between atoms: _282  and  _284
REMARK  119  A    between atoms: _284  and  _285
REMARK  120  A    between atoms: _284  and  _287
REMARK  121  A    between atoms: _287  and  _288
REMARK  122  A    between atoms: _291  and  _293
REMARK  123  A    between atoms: _293  and  _294
REMARK  124  A    between atoms: _293  and  _296
REMARK  125  A    between atoms: _296  and  _297
REMARK  126  A    between atoms: _297  and  _298
REMARK  127  A    between atoms: _303  and  _305
REMARK  128  A    between atoms: _305  and  _306
REMARK  129  A    between atoms: _305  and  _308
REMARK  130  A    between atoms: _308  and  _309
REMARK  131  A    between atoms: _311  and  _313
REMARK  132  A    between atoms: _313  and  _314
REMARK  133  A    between atoms: _313  and  _316
REMARK  134  A    between atoms: _316  and  _317
REMARK  135  A    between atoms: _320  and  _322
REMARK  136  A    between atoms: _322  and  _323
REMARK  137  A    between atoms: _322  and  _325
REMARK  138  A    between atoms: _325  and  _326
REMARK  139  A    between atoms: _326  and  _327
REMARK  140  A    between atoms: _327  and  _328
REMARK  141  A    between atoms: _337  and  _339
REMARK  142  A    between atoms: _339  and  _340
REMARK  143  A    between atoms: _339  and  _342
REMARK  144  A    between atoms: _342  and  _343
REMARK  145  A    between atoms: _343  and  _344
REMARK  146  A    between atoms: _346  and  _348
REMARK  147  A    between atoms: _348  and  _349
REMARK  148  A    between atoms: _348  and  _351
REMARK  149  A    between atoms: _351  and  _352
REMARK  150  A    between atoms: _355  and  _357
REMARK  151  A    between atoms: _357  and  _358
REMARK  152  A    between atoms: _357  and  _360
REMARK  153  A    between atoms: _360  and  _361
REMARK  154  A    between atoms: _364  and  _366
REMARK  155  A    between atoms: _366  and  _367
REMARK  156  A    between atoms: _366  and  _369
REMARK  157  A    between atoms: _369  and  _370
REMARK  158  A    between atoms: _370  and  _371
REMARK  159  A    between atoms: _373  and  _375
REMARK  160  A    between atoms: _375  and  _376
REMARK  161  A    between atoms: _375  and  _378
REMARK  162  A    between atoms: _378  and  _379
REMARK  163  A    between atoms: _382  and  _384
REMARK  164  A    between atoms: _384  and  _385
REMARK  165  A    between atoms: _384  and  _387
REMARK  166  A    between atoms: _387  and  _388
REMARK  167  A    between atoms: _388  and  _389
REMARK  168  A    between atoms: _392  and  _394
REMARK  169  A    between atoms: _394  and  _395
REMARK  170  A    between atoms: _394  and  _397
REMARK  171  A    between atoms: _397  and  _398
REMARK  172  A    between atoms: _404  and  _406
REMARK  173  A    between atoms: _406  and  _407
REMARK  174  A    between atoms: _411  and  _412
REMARK  175  A    between atoms: _417  and  _419
REMARK  176  A    between atoms: _419  and  _420
REMARK  177  A    between atoms: _419  and  _422
REMARK  178  A    between atoms: _422  and  _423
REMARK  179  A    between atoms: _423  and  _424
REMARK  180  A    between atoms: _424  and  _425
REMARK  181  A    between atoms: _434  and  _436
REMARK  182  A    between atoms: _436  and  _437
REMARK  183  A    between atoms: _439  and  _441
REMARK  184  A    between atoms: _441  and  _442
REMARK  185  A    between atoms: _441  and  _444
REMARK  186  A    between atoms: _444  and  _445
REMARK  187  A    between atoms: _445  and  _446
REMARK  188  A    between atoms: _449  and  _451
REMARK  189  A    between atoms: _451  and  _452
REMARK  190  A    between atoms: _451  and  _454
REMARK  191  A    between atoms: _454  and  _455
REMARK  192  A    between atoms: _458  and  _460
REMARK  193  A    between atoms: _460  and  _461
REMARK  194  A    between atoms: _460  and  _463
REMARK  195  A    between atoms: _463  and  _464
REMARK  196  A    between atoms: _464  and  _465
REMARK  197  A    between atoms: _465  and  _466
REMARK  198  A    between atoms: _466  and  _467
REMARK  199  A    between atoms: _471  and  _473
REMARK  200  A    between atoms: _473  and  _474
REMARK  201  A    between atoms: _473  and  _476
REMARK  202  A    between atoms: _476  and  _477
REMARK  203  A    between atoms: _477  and  _478
REMARK  204  A    between atoms: _481  and  _483
REMARK  205  A    between atoms: _483  and  _484
REMARK  206  A    between atoms: _483  and  _486
REMARK  207  A    between atoms: _486  and  _487
REMARK  208  A    between atoms: _487  and  _488
REMARK  209  A    between atoms: _488  and  _489
REMARK  210  A    between atoms: _489  and  _490
REMARK  211  A    between atoms: _494  and  _496
REMARK  212  A    between atoms: _496  and  _497
REMARK  213  A    between atoms: _496  and  _499
REMARK  214  A    between atoms: _499  and  _500
REMARK  215  A    between atoms: _500  and  _501
REMARK  216  A    between atoms: _504  and  _506
REMARK  217  A    between atoms: _506  and  _507
REMARK  218  A    between atoms: _506  and  _509
REMARK  219  A    between atoms: _509  and  _510
REMARK  220  A    between atoms: _515  and  _517
REMARK  221  A    between atoms: _517  and  _518
REMARK  222  A    between atoms: _517  and  _520
REMARK  223  A    between atoms: _520  and  _521
REMARK  224  A    between atoms: _524  and  _526
REMARK  225  A    between atoms: _526  and  _527
REMARK  226  A    between atoms: _526  and  _529
REMARK  227  A    between atoms: _529  and  _530
REMARK  228  A    between atoms: _533  and  _535
REMARK  229  A    between atoms: _535  and  _536
REMARK  230  A    between atoms: _535  and  _538
REMARK  231  A    between atoms: _538  and  _539
REMARK  232  A    between atoms: _539  and  _540
REMARK  233  A    between atoms: _542  and  _544
REMARK  234  A    between atoms: _544  and  _545
REMARK  235  A    between atoms: _544  and  _547
REMARK  236  A    between atoms: _547  and  _548
REMARK  237  A    between atoms: _548  and  _549
REMARK  238  A    between atoms: _549  and  _550
REMARK  239  A    between atoms: _550  and  _551
REMARK  240  A    between atoms: _555  and  _557
REMARK  241  A    between atoms: _557  and  _558
REMARK  242  A    between atoms: _557  and  _560
REMARK  243  A    between atoms: _560  and  _561
REMARK  244  A    between atoms: _564  and  _566
REMARK  245  A    between atoms: _566  and  _567
REMARK  246  A    between atoms: _570  and  _572
REMARK  247  A    between atoms: _572  and  _573
REMARK  248  A    between atoms: _572  and  _575
REMARK  249  A    between atoms: _575  and  _576
REMARK  250  A    between atoms: _579  and  _581
REMARK  251  A    between atoms: _581  and  _582
REMARK  252  A    between atoms: _581  and  _584
REMARK  253  A    between atoms: _584  and  _585
REMARK  254  A    between atoms: _591  and  _593
REMARK  255  A    between atoms: _593  and  _594
REMARK  256  A    between atoms: _596  and  _598
REMARK  257  A    between atoms: _598  and  _599
REMARK  258  A    between atoms: _598  and  _601
REMARK  259  A    between atoms: _601  and  _602
REMARK                            x       y       z     vdW  Elec       q    Type
REMARK                         _______ _______ _______ _____ _____    ______ ____
ROOT
ATOM      1  C   ARG A   4      -2.953 -14.782  12.401  0.00  0.00    +0.241 C 
ATOM      2  O   ARG A   4      -2.195 -14.707  13.378  0.00  0.00    -0.273 OA
ATOM      3  N   GLU A   5      -2.762 -15.654  11.414  0.00  0.00    -0.297 N 
ATOM      4  H   GLU A   5      -3.451 -15.733  10.639  0.00  0.00    +0.150 HD
ENDROOT
BRANCH   1   5
ATOM      5  CA  ARG A   4      -4.149 -13.847  12.294  0.00  0.00    +0.149 C 
BRANCH   5   8
ATOM      6  C   ARG A   3      -3.321 -12.579  10.393  0.00  0.00    +0.241 C 
ATOM      7  O   ARG A   3      -2.328 -12.211  11.058  0.00  0.00    -0.273 OA
ATOM      8  N   ARG A   4      -4.248 -13.401  10.871  0.00  0.00    -0.297 N 
ATOM      9  H   ARG A   4      -5.028 -13.728  10.266  0.00  0.00    +0.150 HD
BRANCH   6  10
ATOM     10  CA  ARG A   3      -3.569 -12.111   8.963  0.00  0.00    +0.149 C 
BRANCH  10  13
ATOM     11  C   LEU A   2      -3.310 -14.262   7.944  0.00  0.00    +0.241 C 
ATOM     12  O   LEU A   2      -2.198 -14.402   8.523  0.00  0.00    -0.273 OA
ATOM     13  N   ARG A   3      -3.987 -13.151   8.082  0.00  0.00    -0.297 N 
ATOM     14  H   ARG A   3      -4.859 -13.022   7.531  0.00  0.00    +0.150 HD
BRANCH  11  15
ATOM     15  CA  LEU A   2      -3.897 -15.315   7.016  0.00  0.00    +0.149 C 
BRANCH  15  18
ATOM     16  C   GLN A   1      -5.722 -15.885   8.447  0.00  0.00    +0.238 C 
ATOM     17  O   GLN A   1      -4.869 -16.224   9.280  0.00  0.00    -0.274 OA
ATOM     18  N   LEU A   2      -5.296 -15.361   7.286  0.00  0.00    -0.297 N 
ATOM     19  H   LEU A   2      -5.978 -14.993   6.593  0.00  0.00    +0.150 HD
BRANCH  16  20
ATOM     20  CA  GLN A   1      -7.272 -15.984   8.645  0.00  0.00    +0.145 C 
BRANCH  20  21
ATOM     21  N   GLN A   1      -7.910 -14.810   8.152  0.00  0.00    -0.238 NA
ATOM     22  H   GLN A   1      -8.577 -14.911   7.361  0.00  0.00    +0.142 HD
ENDBRANCH  20  21
BRANCH  20  23
ATOM     23  CB  GLN A   1      -7.884 -17.039   7.792  0.00  0.00    +0.036 C 
BRANCH  23  24
ATOM     24  CG  GLN A   1      -7.314 -18.363   7.987  0.00  0.00    +0.087 C 
BRANCH  24  25
ATOM     25  CD  GLN A   1      -8.179 -19.482   7.413  0.00  0.00    +0.219 C 
ATOM     26  NE2 GLN A   1      -7.642 -20.671   7.546  0.00  0.00    -0.329 N 
ATOM     27 HE21 GLN A   1      -6.695 -20.770   7.965  0.00  0.00    +0.145 HD
ATOM     28 HE22 GLN A   1      -8.163 -21.515   7.233  0.00  0.00    +0.145 HD
ATOM     29  OE1 GLN A   1      -9.344 -19.302   6.903  0.00  0.00    -0.275 OA
ENDBRANCH  24  25
ENDBRANCH  23  24
ENDBRANCH  20  23
ENDBRANCH  16  20
ENDBRANCH  15  18
BRANCH  15  30
ATOM     30  CB  LEU A   2      -3.603 -14.911   5.537  0.00  0.00    +0.029 C 
BRANCH  30  31
ATOM     31  CG  LEU A   2      -2.154 -14.461   5.265  0.00  0.00    +0.002 C 
ATOM     32  CD2 LEU A   2      -1.340 -15.715   5.329  0.00  0.00    +0.000 C 
ATOM     33  CD1 LEU A   2      -2.051 -13.795   3.878  0.00  0.00    +0.000 C 
ENDBRANCH  30  31
ENDBRANCH  15  30
ENDBRANCH  11  15
ENDBRANCH  10  13
BRANCH  10  34
ATOM     34  CB  ARG A   3      -4.537 -10.929   8.941  0.00  0.00    +0.033 C 
BRANCH  34  35
ATOM     35  CG  ARG A   3      -4.206  -9.828   9.905  0.00  0.00    +0.045 C 
BRANCH  35  36
ATOM     36  CD  ARG A   3      -5.204  -8.648   9.837  0.00  0.00    +0.174 C 
BRANCH  36  37
ATOM     37  NE  ARG A   3      -5.090  -8.100   8.477  0.00  0.00    -0.265 N 
ATOM     38  HE  ARG A   3      -4.410  -7.325   8.343  0.00  0.00    +0.259 HD
ATOM     39  CZ  ARG A   3      -5.772  -8.496   7.392  0.00  0.00    +0.342 C 
ATOM     40  NH2 ARG A   3      -6.734  -9.403   7.467  0.00  0.00    -0.292 N 
ATOM     41 HH21 ARG A   3      -6.978  -9.828   8.384  0.00  0.00    +0.255 HD
ATOM     42 HH22 ARG A   3      -7.246  -9.690   6.608  0.00  0.00    +0.255 HD
ATOM     43  NH1 ARG A   3      -5.509  -7.931   6.201  0.00  0.00    -0.292 N 
ATOM     44 HH11 ARG A   3      -4.781  -7.192   6.125  0.00  0.00    +0.255 HD
ATOM     45 HH12 ARG A   3      -6.034  -8.233   5.355  0.00  0.00    +0.255 HD
ENDBRANCH  36  37
ENDBRANCH  35  36
ENDBRANCH  34  35
ENDBRANCH  10  34
ENDBRANCH   6  10
ENDBRANCH   5   8
BRANCH   5  46
ATOM     46  CB  ARG A   4      -5.396 -14.638  12.750  0.00  0.00    +0.033 C 
BRANCH  46  47
ATOM     47  CG  ARG A   4      -5.107 -15.468  14.033  0.00  0.00    +0.045 C 
BRANCH  47  48
ATOM     48  CD  ARG A   4      -6.100 -16.622  14.330  0.00  0.00    +0.174 C 
BRANCH  48  49
ATOM     49  NE  ARG A   4      -7.466 -16.114  14.445  0.00  0.00    -0.265 N 
ATOM     50  HE  ARG A   4      -7.743 -15.714  15.364  0.00  0.00    +0.259 HD
ATOM     51  CZ  ARG A   4      -8.386 -16.115  13.488  0.00  0.00    +0.342 C 
ATOM     52  NH2 ARG A   4      -9.569 -15.560  13.762  0.00  0.00    -0.292 N 
ATOM     53 HH21 ARG A   4      -9.744 -15.146  14.700  0.00  0.00    +0.255 HD
ATOM     54 HH22 ARG A   4     -10.315 -15.542  13.038  0.00  0.00    +0.255 HD
ATOM     55  NH1 ARG A   4      -8.208 -16.680  12.300  0.00  0.00    -0.292 N 
ATOM     56 HH11 ARG A   4      -7.309 -17.155  12.079  0.00  0.00    +0.255 HD
ATOM     57 HH12 ARG A   4      -8.967 -16.648  11.590  0.00  0.00    +0.255 HD
ENDBRANCH  48  49
ENDBRANCH  47  48
ENDBRANCH  46  47
ENDBRANCH   5  46
ENDBRANCH   1   5
BRANCH   3  58
ATOM     58  CA  GLU A   5      -1.557 -16.509  11.436  0.00  0.00    +0.149 C 
BRANCH  58  59
ATOM     59  C   GLU A   5      -0.264 -15.756  11.451  0.00  0.00    +0.241 C 
ATOM     60  O   GLU A   5       0.721 -16.082  12.184  0.00  0.00    -0.273 OA
ATOM     61  N   ILE A   6      -0.126 -14.705  10.610  0.00  0.00    -0.297 N 
ATOM     62  H   ILE A   6      -0.893 -14.497   9.939  0.00  0.00    +0.150 HD
BRANCH  61  63
ATOM     63  CA  ILE A   6       1.021 -13.878  10.608  0.00  0.00    +0.149 C 
BRANCH  63  64
ATOM     64  C   ILE A   6       1.190 -13.196  11.945  0.00  0.00    +0.241 C 
ATOM     65  O   ILE A   6       2.311 -13.125  12.472  0.00  0.00    -0.273 OA
ATOM     66  N   GLU A   7       0.146 -12.598  12.457  0.00  0.00    -0.297 N 
ATOM     67  H   GLU A   7      -0.745 -12.593  11.921  0.00  0.00    +0.150 HD
BRANCH  66  68
ATOM     68  CA  GLU A   7       0.194 -11.928  13.775  0.00  0.00    +0.149 C 
BRANCH  68  69
ATOM     69  C   GLU A   7       0.750 -12.860  14.851  0.00  0.00    +0.241 C 
ATOM     70  O   GLU A   7       1.652 -12.494  15.610  0.00  0.00    -0.273 OA
ATOM     71  N   ILE A   8       0.251 -14.078  14.884  0.00  0.00    -0.297 N 
ATOM     72  H   ILE A   8      -0.455 -14.392  14.188  0.00  0.00    +0.150 HD
BRANCH  71  73
ATOM     73  CA  ILE A   8       0.741 -14.993  15.965  0.00  0.00    +0.149 C 
BRANCH  73  74
ATOM     74  C   ILE A   8       2.215 -15.362  15.686  0.00  0.00    +0.241 C 
ATOM     75  O   ILE A   8       3.051 -15.172  16.568  0.00  0.00    -0.273 OA
ATOM     76  N   GLN A   9       2.573 -15.915  14.513  0.00  0.00    -0.297 N 
ATOM     77  H   GLN A   9       1.874 -15.969  13.745  0.00  0.00    +0.150 HD
BRANCH  76  78
ATOM     78  CA  GLN A   9       3.878 -16.426  14.296  0.00  0.00    +0.149 C 
BRANCH  78  79
ATOM     79  C   GLN A   9       4.956 -15.351  14.348  0.00  0.00    +0.241 C 
ATOM     80  O   GLN A   9       6.078 -15.612  14.778  0.00  0.00    -0.273 OA
ATOM     81  N   SER A  10       4.644 -14.132  13.872  0.00  0.00    -0.296 N 
ATOM     82  H   SER A  10       3.665 -13.920  13.591  0.00  0.00    +0.150 HD
BRANCH  81  83
ATOM     83  CA  SER A  10       5.652 -13.130  13.752  0.00  0.00    +0.166 C 
BRANCH  83  84
ATOM     84  CB  SER A  10       6.069 -12.541  15.098  0.00  0.00    +0.229 C 
ATOM     85  OG  SER A  10       7.105 -11.904  15.150  0.00  0.00    -0.286 OA
ENDBRANCH  83  84
BRANCH  83  86
ATOM     86  C   SER A  10       5.096 -11.953  12.861  0.00  0.00    +0.165 C 
BRANCH  86  87
ATOM     87  O   SER A  10       4.032 -11.272  13.403  0.00  0.00    -0.380 OA
ATOM     88  H   SER A  10       3.280 -11.899  13.549  0.00  0.00    +0.211 HD
ENDBRANCH  86  87
ENDBRANCH  83  86
ENDBRANCH  81  83
ENDBRANCH  78  79
BRANCH  78  89
ATOM     89  CB  GLN A   9       3.968 -17.305  13.071  0.00  0.00    +0.039 C 
BRANCH  89  90
ATOM     90  CG  GLN A   9       5.286 -18.021  12.878  0.00  0.00    +0.087 C 
BRANCH  90  91
ATOM     91  CD  GLN A   9       5.222 -19.088  11.828  0.00  0.00    +0.219 C 
ATOM     92  NE2 GLN A   9       6.246 -19.978  11.779  0.00  0.00    -0.329 N 
ATOM     93 HE21 GLN A   9       7.033 -19.903  12.455  0.00  0.00    +0.145 HD
ATOM     94 HE22 GLN A   9       6.244 -20.734  11.065  0.00  0.00    +0.145 HD
ATOM     95  OE1 GLN A   9       4.280 -19.148  11.046  0.00  0.00    -0.275 OA
ENDBRANCH  90  91
ENDBRANCH  89  90
ENDBRANCH  78  89
ENDBRANCH  76  78
ENDBRANCH  73  74
BRANCH  73  96
ATOM     96  CB  ILE A   8      -0.147 -16.223  16.032  0.00  0.00    +0.027 C 
ATOM     97  CG2 ILE A   8       0.501 -17.338  16.869  0.00  0.00    +0.002 C 
BRANCH  96  98
ATOM     98  CG1 ILE A   8      -1.488 -15.867  16.606  0.00  0.00    +0.002 C 
ATOM     99  CD1 ILE A   8      -2.460 -16.945  16.510  0.00  0.00    +0.000 C 
ENDBRANCH  96  98
ENDBRANCH  73  96
ENDBRANCH  71  73
ENDBRANCH  68  69
BRANCH  68 100
ATOM    100  CB  GLU A   7      -1.183 -11.365  14.108  0.00  0.00    +0.041 C 
BRANCH 100 101
ATOM    101  CG  GLU A   7      -1.428 -10.730  15.487  0.00  0.00    +0.116 C 
BRANCH 101 102
ATOM    102  CD  GLU A   7      -0.642  -9.465  15.737  0.00  0.00    +0.365 C 
ATOM    103  OE2 GLU A   7      -0.924  -8.764  16.754  0.00  0.00    -0.246 OA
ATOM    104  OE1 GLU A   7       0.245  -9.171  14.905  0.00  0.00    -0.246 OA
ENDBRANCH 101 102
ENDBRANCH 100 101
ENDBRANCH  68 100
ENDBRANCH  66  68
ENDBRANCH  63  64
BRANCH  63 105
ATOM    105  CB  ILE A   6       0.922 -12.834   9.412  0.00  0.00    +0.027 C 
ATOM    106  CG2 ILE A   6       2.056 -11.816   9.545  0.00  0.00    +0.002 C 
BRANCH 105 107
ATOM    107  CG1 ILE A   6       0.949 -13.534   8.084  0.00  0.00    +0.002 C 
ATOM    108  CD1 ILE A   6       0.768 -12.533   6.900  0.00  0.00    +0.000 C 
ENDBRANCH 105 107
ENDBRANCH  63 105
ENDBRANCH  61  63
ENDBRANCH  58  59
BRANCH  58 109
ATOM    109  CB  GLU A   5      -1.406 -17.508  10.278  0.00  0.00    +0.041 C 
BRANCH 109 110
ATOM    110  CG  GLU A   5      -2.329 -18.609  10.079  0.00  0.00    +0.116 C 
BRANCH 110 111
ATOM    111  CD  GLU A   5      -1.744 -19.641   9.149  0.00  0.00    +0.365 C 
ATOM    112  OE2 GLU A   5      -0.509 -19.939   9.148  0.00  0.00    -0.246 OA
ATOM    113  OE1 GLU A   5      -2.539 -20.179   8.435  0.00  0.00    -0.246 OA
ENDBRANCH 110 111
ENDBRANCH 109 110
ENDBRANCH  58 109
ENDBRANCH   3  58
TORSDOF 48
REMARK  Name = ../refined-set-2016/4c2v/4c2v_pocket.pdb
REMARK  259 active torsions:
REMARK  status: ('A' for Active; 'I' for Inactive)
REMARK    1  A    between atoms: _1  and  _3
REMARK    2  A    between atoms: _3  and  _4
REMARK    3  A    between atoms: _3  and  _6
REMARK    4  A    between atoms: _6  and  _7
REMARK    5  A    between atoms: _7  and  _8
REMARK    6  A    between atoms: _8  and  _9
REMARK    7  A    between atoms: _19  and  _20
REMARK    8  A    between atoms: _25  and  _27
REMARK    9  A    between atoms: _27  and  _28
REMARK   10  A    between atoms: _27  and  _30
REMARK   11  A    between atoms: _30  and  _31
REMARK   12  A    between atoms: _34  and  _36
REMARK   13  A    between atoms: _36  and  _37
REMARK   14  A    between atoms: _39  and  _41
REMARK   15  A    between atoms: _41  and  _42
REMARK   16  A    between atoms: _41  and  _44
REMARK   17  A    between atoms: _44  and  _45
REMARK   18  A    between atoms: _45  and  _46
REMARK   19  A    between atoms: _46  and  _47
REMARK   20  A    between atoms: _47  and  _48
REMARK   21  A    between atoms: _52  and  _54
REMARK   22  A    between atoms: _54  and  _55
REMARK   23  A    between atoms: _57  and  _59
REMARK   24  A    between atoms: _59  and  _60
REMARK   25  A    between atoms: _59  and  _62
REMARK   26  A    between atoms: _62  and  _63
REMARK   27  A    between atoms: _63  and  _64
REMARK   28  A    between atoms: _64  and  _65
REMARK   29  A    between atoms: _65  and  _66
REMARK   30  A    between atoms: _70  and  _72
REMARK   31  A    between atoms: _72  and  _73
REMARK   32  A    between atoms: _72  and  _75
REMARK   33  A    between atoms: _75  and  _76
REMARK   34  A    between atoms: _82  and  _84
REMARK   35  A    between atoms: _84  and  _85
REMARK   36  A    between atoms: _87  and  _89
REMARK   37  A    between atoms: _89  and  _90
REMARK   38  A    between atoms: _89  and  _92
REMARK   39  A    between atoms: _92  and  _93
REMARK   40  A    between atoms: _98  and  _100
REMARK   41  A    between atoms: _100  and  _101
REMARK   42  A    between atoms: _100  and  _103
REMARK   43  A    between atoms: _106  and  _108
REMARK   44  A    between atoms: _108  and  _109
REMARK   45  A    between atoms: _108  and  _111
REMARK   46  A    between atoms: _111  and  _112
REMARK   47  A    between atoms: _117  and  _118
REMARK   48  A    between atoms: _120  and  _122
REMARK   49  A    between atoms: _122  and  _123
REMARK   50  A    between atoms: _122  and  _125
REMARK   51  A    between atoms: _125  and  _126
REMARK   52  A    between atoms: _129  and  _131
REMARK   53  A    between atoms: _131  and  _132
REMARK   54  A    between atoms: _135  and  _137
REMARK   55  A    between atoms: _137  and  _138
REMARK   56  A    between atoms: _137  and  _140
REMARK   57  A    between atoms: _140  and  _141
REMARK   58  A    between atoms: _141  and  _142
REMARK   59  A    between atoms: _144  and  _146
REMARK   60  A    between atoms: _146  and  _147
REMARK   61  A    between atoms: _150  and  _152
REMARK   62  A    between atoms: _152  and  _153
REMARK   63  A    between atoms: _152  and  _155
REMARK   64  A    between atoms: _155  and  _156
REMARK   65  A    between atoms: _159  and  _161
REMARK   66  A    between atoms: _161  and  _162
REMARK   67  A    between atoms: _161  and  _164
REMARK   68  A    between atoms: _164  and  _165
REMARK   69  A    between atoms: _165  and  _166
REMARK   70  A    between atoms: _166  and  _167
REMARK   71  A    between atoms: _167  and  _168
REMARK   72  A    between atoms: _172  and  _174
REMARK   73  A    between atoms: _174  and  _175
REMARK   74  A    between atoms: _174  and  _177
REMARK   75  A    between atoms: _180  and  _182
REMARK   76  A    between atoms: _182  and  _183
REMARK   77  A    between atoms: _182  and  _185
REMARK   78  A    between atoms: _185  and  _186
REMARK   79  A    between atoms: _189  and  _191
REMARK   80  A    between atoms: _191  and  _192
REMARK   81  A    between atoms: _191  and  _194
REMARK   82  A    between atoms: _194  and  _195
REMARK   83  A    between atoms: _198  and  _200
REMARK   84  A    between atoms: _200  and  _201
REMARK   85  A    between atoms: _200  and  _203
REMARK   86  A    between atoms: _203  and  _204
REMARK   87  A    between atoms: _204  and  _205
REMARK   88  A    between atoms: _210  and  _212
REMARK   89  A    between atoms: _212  and  _213
REMARK   90  A    between atoms: _212  and  _215
REMARK   91  A    between atoms: _215  and  _216
REMARK   92  A    between atoms: _219  and  _221
REMARK   93  A    between atoms: _221  and  _222
REMARK   94  A    between atoms: _221  and  _224
REMARK   95  A    between atoms: _224  and  _225
REMARK   96  A    between atoms: _225  and  _226
REMARK   97  A    between atoms: _226  and  _227
REMARK   98  A    between atoms: _236  and  _238
REMARK   99  A    between atoms: _238  and  _239
REMARK  100  A    between atoms: _238  and  _241
REMARK  101  A    between atoms: _241  and  _242
REMARK  102  A    between atoms: _242  and  _243
REMARK  103  A    between atoms: _243  and  _244
REMARK  104  A    between atoms: _253  and  _255
REMARK  105  A    between atoms: _255  and  _256
REMARK  106  A    between atoms: _255  and  _258
REMARK  107  A    between atoms: _258  and  _259
REMARK  108  A    between atoms: _259  and  _260
REMARK  109  A    between atoms: _263  and  _265
REMARK  110  A    between atoms: _265  and  _266
REMARK  111  A    between atoms: _265  and  _268
REMARK  112  A    between atoms: _268  and  _269
REMARK  113  A    between atoms: _272  and  _274
REMARK  114  A    between atoms: _274  and  _275
REMARK  115  A    between atoms: _274  and  _277
REMARK  116  A    between atoms: _277  and  _278
REMARK  117  A    between atoms: _278  and  _279
REMARK  118  A    between atoms: _282  and  _284
REMARK  119  A    between atoms: _284  and  _285
REMARK  120  A    between atoms: _284  and  _287
REMARK  121  A    between atoms: _287  and  _288
REMARK  122  A    between atoms: _291  and  _293
REMARK  123  A    between atoms: _293  and  _294
REMARK  124  A    between atoms: _293  and  _296
REMARK  125  A    between atoms: _296  and  _297
REMARK  126  A    between atoms: _297  and  _298
REMARK  127  A    between atoms: _303  and  _305
REMARK  128  A    between atoms: _305  and  _306
REMARK  129  A    between atoms: _305  and  _308
REMARK  130  A    between atoms: _308  and  _309
REMARK  131  A    between atoms: _311  and  _313
REMARK  132  A    between atoms: _313  and  _314
REMARK  133  A    between atoms: _313  and  _316
REMARK  134  A    between atoms: _316  and  _317
REMARK  135  A    between atoms: _320  and  _322
REMARK  136  A    between atoms: _322  and  _323
REMARK  137  A    between atoms: _322  and  _325
REMARK  138  A    between atoms: _325  and  _326
REMARK  139  A    between atoms: _326  and  _327
REMARK  140  A    between atoms: _327  and  _328
REMARK  141  A    between atoms: _337  and  _339
REMARK  142  A    between atoms: _339  and  _340
REMARK  143  A    between atoms: _339  and  _342
REMARK  144  A    between atoms: _342  and  _343
REMARK  145  A    between atoms: _343  and  _344
REMARK  146  A    between atoms: _346  and  _348
REMARK  147  A    between atoms: _348  and  _349
REMARK  148  A    between atoms: _348  and  _351
REMARK  149  A    between atoms: _351  and  _352
REMARK  150  A    between atoms: _355  and  _357
REMARK  151  A    between atoms: _357  and  _358
REMARK  152  A    between atoms: _357  and  _360
REMARK  153  A    between atoms: _360  and  _361
REMARK  154  A    between atoms: _364  and  _366
REMARK  155  A    between atoms: _366  and  _367
REMARK  156  A    between atoms: _366  and  _369
REMARK  157  A    between atoms: _369  and  _370
REMARK  158  A    between atoms: _370  and  _371
REMARK  159  A    between atoms: _373  and  _375
REMARK  160  A    between atoms: _375  and  _376
REMARK  161  A    between atoms: _375  and  _378
REMARK  162  A    between atoms: _378  and  _379
REMARK  163  A    between atoms: _382  and  _384
REMARK  164  A    between atoms: _384  and  _385
REMARK  165  A    between atoms: _384  and  _387
REMARK  166  A    between atoms: _387  and  _388
REMARK  167  A    between atoms: _388  and  _389
REMARK  168  A    between atoms: _392  and  _394
REMARK  169  A    between atoms: _394  and  _395
REMARK  170  A    between atoms: _394  and  _397
REMARK  171  A    between atoms: _397  and  _398
REMARK  172  A    between atoms: _404  and  _406
REMARK  173  A    between atoms: _406  and  _407
REMARK  174  A    between atoms: _411  and  _412
REMARK  175  A    between atoms: _417  and  _419
REMARK  176  A    between atoms: _419  and  _420
REMARK  177  A    between atoms: _419  and  _422
REMARK  178  A    between atoms: _422  and  _423
REMARK  179  A    between atoms: _423  and  _424
REMARK  180  A    between atoms: _424  and  _425
REMARK  181  A    between atoms: _434  and  _436
REMARK  182  A    between atoms: _436  and  _437
REMARK  183  A    between atoms: _439  and  _441
REMARK  184  A    between atoms: _441  and  _442
REMARK  185  A    between atoms: _441  and  _444
REMARK  186  A    between atoms: _444  and  _445
REMARK  187  A    between atoms: _445  and  _446
REMARK  188  A    between atoms: _449  and  _451
REMARK  189  A    between atoms: _451  and  _452
REMARK  190  A    between atoms: _451  and  _454
REMARK  191  A    between atoms: _454  and  _455
REMARK  192  A    between atoms: _458  and  _460
REMARK  193  A    between atoms: _460  and  _461
REMARK  194  A    between atoms: _460  and  _463
REMARK  195  A    between atoms: _463  and  _464
REMARK  196  A    between atoms: _464  and  _465
REMARK  197  A    between atoms: _465  and  _466
REMARK  198  A    between atoms: _466  and  _467
REMARK  199  A    between atoms: _471  and  _473
REMARK  200  A    between atoms: _473  and  _474
REMARK  201  A    between atoms: _473  and  _476
REMARK  202  A    between atoms: _476  and  _477
REMARK  203  A    between atoms: _477  and  _478
REMARK  204  A    between atoms: _481  and  _483
REMARK  205  A    between atoms: _483  and  _484
REMARK  206  A    between atoms: _483  and  _486
REMARK  207  A    between atoms: _486  and  _487
REMARK  208  A    between atoms: _487  and  _488
REMARK  209  A    between atoms: _488  and  _489
REMARK  210  A    between atoms: _489  and  _490
REMARK  211  A    between atoms: _494  and  _496
REMARK  212  A    between atoms: _496  and  _497
REMARK  213  A    between atoms: _496  and  _499
REMARK  214  A    between atoms: _499  and  _500
REMARK  215  A    between atoms: _500  and  _501
REMARK  216  A    between atoms: _504  and  _506
REMARK  217  A    between atoms: _506  and  _507
REMARK  218  A    between atoms: _506  and  _509
REMARK  219  A    between atoms: _509  and  _510
REMARK  220  A    between atoms: _515  and  _517
REMARK  221  A    between atoms: _517  and  _518
REMARK  222  A    between atoms: _517  and  _520
REMARK  223  A    between atoms: _520  and  _521
REMARK  224  A    between atoms: _524  and  _526
REMARK  225  A    between atoms: _526  and  _527
REMARK  226  A    between atoms: _526  and  _529
REMARK  227  A    between atoms: _529  and  _530
REMARK  228  A    between atoms: _533  and  _535
REMARK  229  A    between atoms: _535  and  _536
REMARK  230  A    between atoms: _535  and  _538
REMARK  231  A    between atoms: _538  and  _539
REMARK  232  A    between atoms: _539  and  _540
REMARK  233  A    between atoms: _542  and  _544
REMARK  234  A    between atoms: _544  and  _545
REMARK  235  A    between atoms: _544  and  _547
REMARK  236  A    between atoms: _547  and  _548
REMARK  237  A    between atoms: _548  and  _549
REMARK  238  A    between atoms: _549  and  _550
REMARK  239  A    between atoms: _550  and  _551
REMARK  240  A    between atoms: _555  and  _557
REMARK  241  A    between atoms: _557  and  _558
REMARK  242  A    between atoms: _557  and  _560
REMARK  243  A    between atoms: _560  and  _561
REMARK  244  A    between atoms: _564  and  _566
REMARK  245  A    between atoms: _566  and  _567
REMARK  246  A    between atoms: _570  and  _572
REMARK  247  A    between atoms: _572  and  _573
REMARK  248  A    between atoms: _572  and  _575
REMARK  249  A    between atoms: _575  and  _576
REMARK  250  A    between atoms: _579  and  _581
REMARK  251  A    between atoms: _581  and  _582
REMARK  252  A    between atoms: _581  and  _584
REMARK  253  A    between atoms: _584  and  _585
REMARK  254  A    between atoms: _591  and  _593
REMARK  255  A    between atoms: _593  and  _594
REMARK  256  A    between atoms: _596  and  _598
REMARK  257  A    between atoms: _598  and  _599
REMARK  258  A    between atoms: _598  and  _601
REMARK  259  A    between atoms: _601  and  _602
REMARK                            x       y       z     vdW  Elec       q    Type
REMARK                         _______ _______ _______ _____ _____    ______ ____
ROOT
ATOM      1  CA  ARG A   2      10.904 -17.933  13.174  0.00  0.00    +0.149 C 
ENDROOT
BRANCH   1   4
ATOM      2  C   LEU A   1       9.835 -20.134  13.299  0.00  0.00    +0.238 C 
ATOM      3  O   LEU A   1       8.708 -19.588  13.451  0.00  0.00    -0.274 OA
ATOM      4  N   ARG A   2      10.933 -19.395  13.145  0.00  0.00    -0.297 N 
ATOM      5  H   ARG A   2      11.844 -19.875  12.999  0.00  0.00    +0.150 HD
BRANCH   2   6
ATOM      6  CA  LEU A   1      10.051 -21.704  13.311  0.00  0.00    +0.145 C 
BRANCH   6   7
ATOM      7  N   LEU A   1       9.493 -22.195  14.549  0.00  0.00    -0.238 NA
ATOM      8  H   LEU A   1       8.696 -22.862  14.509  0.00  0.00    +0.142 HD
ENDBRANCH   6   7
BRANCH   6   9
ATOM      9  CB  LEU A   1       9.348 -22.282  12.109  0.00  0.00    +0.026 C 
BRANCH   9  10
ATOM     10  CG  LEU A   1      10.212 -22.189  10.830  0.00  0.00    +0.002 C 
ATOM     11  CD2 LEU A   1      11.422 -23.122  10.798  0.00  0.00    +0.000 C 
ATOM     12  CD1 LEU A   1       9.347 -22.341   9.632  0.00  0.00    +0.000 C 
ENDBRANCH   9  10
ENDBRANCH   6   9
ENDBRANCH   2   6
ENDBRANCH   1   4
BRANCH   1  13
ATOM     13  C   ARG A   2      10.351 -17.334  11.898  0.00  0.00    +0.241 C 
ATOM     14  N   MET A   3       9.553 -16.273  12.063  0.00  0.00    -0.298 N 
ATOM     15  H   MET A   3       9.183 -16.053  13.010  0.00  0.00    +0.150 HD
ATOM     16  O   ARG A   2      10.724 -17.798  10.840  0.00  0.00    -0.273 OA
BRANCH  14  17
ATOM     17  CA  MET A   3       9.189 -15.407  10.918  0.00  0.00    +0.138 C 
BRANCH  17  18
ATOM     18  C   MET A   3       9.968 -14.178  11.114  0.00  0.00    +0.227 C 
ATOM     19  O   MET A   3       9.648 -13.388  12.036  0.00  0.00    -0.286 OA
ENDBRANCH  17  18
BRANCH  17  20
ATOM     20  CB  MET A   3       7.710 -15.160  10.824  0.00  0.00    +0.039 C 
BRANCH  20  21
ATOM     21  CG  MET A   3       7.294 -14.353   9.476  0.00  0.00    +0.060 C 
BRANCH  21  22
ATOM     22  SD  MET A   3       5.535 -13.960   9.465  0.00  0.00    -0.139 S 
ATOM     23  CE  MET A   3       4.876 -15.510   9.310  0.00  0.00    +0.069 C 
ENDBRANCH  21  22
ENDBRANCH  20  21
ENDBRANCH  17  20
ENDBRANCH  14  17
ENDBRANCH   1  13
BRANCH   1  24
ATOM     24  CB  ARG A   2      12.322 -17.495  13.375  0.00  0.00    +0.033 C 
BRANCH  24  25
ATOM     25  CG  ARG A   2      12.513 -16.026  13.605  0.00  0.00    +0.045 C 
BRANCH  25  26
ATOM     26  CD  ARG A   2      12.096 -15.532  14.984  0.00  0.00    +0.174 C 
BRANCH  26  27
ATOM     27  NE  ARG A   2      12.960 -14.425  15.384  0.00  0.00    -0.265 N 
ATOM     28  HE  ARG A   2      13.886 -14.656  15.796  0.00  0.00    +0.259 HD
ATOM     29  CZ  ARG A   2      12.643 -13.155  15.257  0.00  0.00    +0.342 C 
ATOM     30  NH2 ARG A   2      13.528 -12.219  15.641  0.00  0.00    -0.292 N 
ATOM     31 HH21 ARG A   2      14.449 -12.503  16.032  0.00  0.00    +0.255 HD
ATOM     32 HH22 ARG A   2      13.292 -11.211  15.547  0.00  0.00    +0.255 HD
ATOM     33  NH1 ARG A   2      11.456 -12.801  14.743  0.00  0.00    -0.292 N 
ATOM     34 HH11 ARG A   2      11.211 -11.795  14.645  0.00  0.00    +0.255 HD
ATOM     35 HH12 ARG A   2      10.781 -13.532  14.442  0.00  0.00    +0.255 HD
ENDBRANCH  26  27
ENDBRANCH  25  26
ENDBRANCH  24  25
ENDBRANCH   1  24
TORSDOF 15
REMARK  Name = ../refined-set-2016/4c2v/4c2v_pocket.pdb
REMARK  259 active torsions:
REMARK  status: ('A' for Active; 'I' for Inactive)
REMARK    1  A    between atoms: _1  and  _3
REMARK    2  A    between atoms: _3  and  _4
REMARK    3  A    between atoms: _3  and  _6
REMARK    4  A    between atoms: _6  and  _7
REMARK    5  A    between atoms: _7  and  _8
REMARK    6  A    between atoms: _8  and  _9
REMARK    7  A    between atoms: _19  and  _20
REMARK    8  A    between atoms: _25  and  _27
REMARK    9  A    between atoms: _27  and  _28
REMARK   10  A    between atoms: _27  and  _30
REMARK   11  A    between atoms: _30  and  _31
REMARK   12  A    between atoms: _34  and  _36
REMARK   13  A    between atoms: _36  and  _37
REMARK   14  A    between atoms: _39  and  _41
REMARK   15  A    between atoms: _41  and  _42
REMARK   16  A    between atoms: _41  and  _44
REMARK   17  A    between atoms: _44  and  _45
REMARK   18  A    between atoms: _45  and  _46
REMARK   19  A    between atoms: _46  and  _47
REMARK   20  A    between atoms: _47  and  _48
REMARK   21  A    between atoms: _52  and  _54
REMARK   22  A    between atoms: _54  and  _55
REMARK   23  A    between atoms: _57  and  _59
REMARK   24  A    between atoms: _59  and  _60
REMARK   25  A    between atoms: _59  and  _62
REMARK   26  A    between atoms: _62  and  _63
REMARK   27  A    between atoms: _63  and  _64
REMARK   28  A    between atoms: _64  and  _65
REMARK   29  A    between atoms: _65  and  _66
REMARK   30  A    between atoms: _70  and  _72
REMARK   31  A    between atoms: _72  and  _73
REMARK   32  A    between atoms: _72  and  _75
REMARK   33  A    between atoms: _75  and  _76
REMARK   34  A    between atoms: _82  and  _84
REMARK   35  A    between atoms: _84  and  _85
REMARK   36  A    between atoms: _87  and  _89
REMARK   37  A    between atoms: _89  and  _90
REMARK   38  A    between atoms: _89  and  _92
REMARK   39  A    between atoms: _92  and  _93
REMARK   40  A    between atoms: _98  and  _100
REMARK   41  A    between atoms: _100  and  _101
REMARK   42  A    between atoms: _100  and  _103
REMARK   43  A    between atoms: _106  and  _108
REMARK   44  A    between atoms: _108  and  _109
REMARK   45  A    between atoms: _108  and  _111
REMARK   46  A    between atoms: _111  and  _112
REMARK   47  A    between atoms: _117  and  _118
REMARK   48  A    between atoms: _120  and  _122
REMARK   49  A    between atoms: _122  and  _123
REMARK   50  A    between atoms: _122  and  _125
REMARK   51  A    between atoms: _125  and  _126
REMARK   52  A    between atoms: _129  and  _131
REMARK   53  A    between atoms: _131  and  _132
REMARK   54  A    between atoms: _135  and  _137
REMARK   55  A    between atoms: _137  and  _138
REMARK   56  A    between atoms: _137  and  _140
REMARK   57  A    between atoms: _140  and  _141
REMARK   58  A    between atoms: _141  and  _142
REMARK   59  A    between atoms: _144  and  _146
REMARK   60  A    between atoms: _146  and  _147
REMARK   61  A    between atoms: _150  and  _152
REMARK   62  A    between atoms: _152  and  _153
REMARK   63  A    between atoms: _152  and  _155
REMARK   64  A    between atoms: _155  and  _156
REMARK   65  A    between atoms: _159  and  _161
REMARK   66  A    between atoms: _161  and  _162
REMARK   67  A    between atoms: _161  and  _164
REMARK   68  A    between atoms: _164  and  _165
REMARK   69  A    between atoms: _165  and  _166
REMARK   70  A    between atoms: _166  and  _167
REMARK   71  A    between atoms: _167  and  _168
REMARK   72  A    between atoms: _172  and  _174
REMARK   73  A    between atoms: _174  and  _175
REMARK   74  A    between atoms: _174  and  _177
REMARK   75  A    between atoms: _180  and  _182
REMARK   76  A    between atoms: _182  and  _183
REMARK   77  A    between atoms: _182  and  _185
REMARK   78  A    between atoms: _185  and  _186
REMARK   79  A    between atoms: _189  and  _191
REMARK   80  A    between atoms: _191  and  _192
REMARK   81  A    between atoms: _191  and  _194
REMARK   82  A    between atoms: _194  and  _195
REMARK   83  A    between atoms: _198  and  _200
REMARK   84  A    between atoms: _200  and  _201
REMARK   85  A    between atoms: _200  and  _203
REMARK   86  A    between atoms: _203  and  _204
REMARK   87  A    between atoms: _204  and  _205
REMARK   88  A    between atoms: _210  and  _212
REMARK   89  A    between atoms: _212  and  _213
REMARK   90  A    between atoms: _212  and  _215
REMARK   91  A    between atoms: _215  and  _216
REMARK   92  A    between atoms: _219  and  _221
REMARK   93  A    between atoms: _221  and  _222
REMARK   94  A    between atoms: _221  and  _224
REMARK   95  A    between atoms: _224  and  _225
REMARK   96  A    between atoms: _225  and  _226
REMARK   97  A    between atoms: _226  and  _227
REMARK   98  A    between atoms: _236  and  _238
REMARK   99  A    between atoms: _238  and  _239
REMARK  100  A    between atoms: _238  and  _241
REMARK  101  A    between atoms: _241  and  _242
REMARK  102  A    between atoms: _242  and  _243
REMARK  103  A    between atoms: _243  and  _244
REMARK  104  A    between atoms: _253  and  _255
REMARK  105  A    between atoms: _255  and  _256
REMARK  106  A    between atoms: _255  and  _258
REMARK  107  A    between atoms: _258  and  _259
REMARK  108  A    between atoms: _259  and  _260
REMARK  109  A    between atoms: _263  and  _265
REMARK  110  A    between atoms: _265  and  _266
REMARK  111  A    between atoms: _265  and  _268
REMARK  112  A    between atoms: _268  and  _269
REMARK  113  A    between atoms: _272  and  _274
REMARK  114  A    between atoms: _274  and  _275
REMARK  115  A    between atoms: _274  and  _277
REMARK  116  A    between atoms: _277  and  _278
REMARK  117  A    between atoms: _278  and  _279
REMARK  118  A    between atoms: _282  and  _284
REMARK  119  A    between atoms: _284  and  _285
REMARK  120  A    between atoms: _284  and  _287
REMARK  121  A    between atoms: _287  and  _288
REMARK  122  A    between atoms: _291  and  _293
REMARK  123  A    between atoms: _293  and  _294
REMARK  124  A    between atoms: _293  and  _296
REMARK  125  A    between atoms: _296  and  _297
REMARK  126  A    between atoms: _297  and  _298
REMARK  127  A    between atoms: _303  and  _305
REMARK  128  A    between atoms: _305  and  _306
REMARK  129  A    between atoms: _305  and  _308
REMARK  130  A    between atoms: _308  and  _309
REMARK  131  A    between atoms: _311  and  _313
REMARK  132  A    between atoms: _313  and  _314
REMARK  133  A    between atoms: _313  and  _316
REMARK  134  A    between atoms: _316  and  _317
REMARK  135  A    between atoms: _320  and  _322
REMARK  136  A    between atoms: _322  and  _323
REMARK  137  A    between atoms: _322  and  _325
REMARK  138  A    between atoms: _325  and  _326
REMARK  139  A    between atoms: _326  and  _327
REMARK  140  A    between atoms: _327  and  _328
REMARK  141  A    between atoms: _337  and  _339
REMARK  142  A    between atoms: _339  and  _340
REMARK  143  A    between atoms: _339  and  _342
REMARK  144  A    between atoms: _342  and  _343
REMARK  145  A    between atoms: _343  and  _344
REMARK  146  A    between atoms: _346  and  _348
REMARK  147  A    between atoms: _348  and  _349
REMARK  148  A    between atoms: _348  and  _351
REMARK  149  A    between atoms: _351  and  _352
REMARK  150  A    between atoms: _355  and  _357
REMARK  151  A    between atoms: _357  and  _358
REMARK  152  A    between atoms: _357  and  _360
REMARK  153  A    between atoms: _360  and  _361
REMARK  154  A    between atoms: _364  and  _366
REMARK  155  A    between atoms: _366  and  _367
REMARK  156  A    between atoms: _366  and  _369
REMARK  157  A    between atoms: _369  and  _370
REMARK  158  A    between atoms: _370  and  _371
REMARK  159  A    between atoms: _373  and  _375
REMARK  160  A    between atoms: _375  and  _376
REMARK  161  A    between atoms: _375  and  _378
REMARK  162  A    between atoms: _378  and  _379
REMARK  163  A    between atoms: _382  and  _384
REMARK  164  A    between atoms: _384  and  _385
REMARK  165  A    between atoms: _384  and  _387
REMARK  166  A    between atoms: _387  and  _388
REMARK  167  A    between atoms: _388  and  _389
REMARK  168  A    between atoms: _392  and  _394
REMARK  169  A    between atoms: _394  and  _395
REMARK  170  A    between atoms: _394  and  _397
REMARK  171  A    between atoms: _397  and  _398
REMARK  172  A    between atoms: _404  and  _406
REMARK  173  A    between atoms: _406  and  _407
REMARK  174  A    between atoms: _411  and  _412
REMARK  175  A    between atoms: _417  and  _419
REMARK  176  A    between atoms: _419  and  _420
REMARK  177  A    between atoms: _419  and  _422
REMARK  178  A    between atoms: _422  and  _423
REMARK  179  A    between atoms: _423  and  _424
REMARK  180  A    between atoms: _424  and  _425
REMARK  181  A    between atoms: _434  and  _436
REMARK  182  A    between atoms: _436  and  _437
REMARK  183  A    between atoms: _439  and  _441
REMARK  184  A    between atoms: _441  and  _442
REMARK  185  A    between atoms: _441  and  _444
REMARK  186  A    between atoms: _444  and  _445
REMARK  187  A    between atoms: _445  and  _446
REMARK  188  A    between atoms: _449  and  _451
REMARK  189  A    between atoms: _451  and  _452
REMARK  190  A    between atoms: _451  and  _454
REMARK  191  A    between atoms: _454  and  _455
REMARK  192  A    between atoms: _458  and  _460
REMARK  193  A    between atoms: _460  and  _461
REMARK  194  A    between atoms: _460  and  _463
REMARK  195  A    between atoms: _463  and  _464
REMARK  196  A    between atoms: _464  and  _465
REMARK  197  A    between atoms: _465  and  _466
REMARK  198  A    between atoms: _466  and  _467
REMARK  199  A    between atoms: _471  and  _473
REMARK  200  A    between atoms: _473  and  _474
REMARK  201  A    between atoms: _473  and  _476
REMARK  202  A    between atoms: _476  and  _477
REMARK  203  A    between atoms: _477  and  _478
REMARK  204  A    between atoms: _481  and  _483
REMARK  205  A    between atoms: _483  and  _484
REMARK  206  A    between atoms: _483  and  _486
REMARK  207  A    between atoms: _486  and  _487
REMARK  208  A    between atoms: _487  and  _488
REMARK  209  A    between atoms: _488  and  _489
REMARK  210  A    between atoms: _489  and  _490
REMARK  211  A    between atoms: _494  and  _496
REMARK  212  A    between atoms: _496  and  _497
REMARK  213  A    between atoms: _496  and  _499
REMARK  214  A    between atoms: _499  and  _500
REMARK  215  A    between atoms: _500  and  _501
REMARK  216  A    between atoms: _504  and  _506
REMARK  217  A    between atoms: _506  and  _507
REMARK  218  A    between atoms: _506  and  _509
REMARK  219  A    between atoms: _509  and  _510
REMARK  220  A    between atoms: _515  and  _517
REMARK  221  A    between atoms: _517  and  _518
REMARK  222  A    between atoms: _517  and  _520
REMARK  223  A    between atoms: _520  and  _521
REMARK  224  A    between atoms: _524  and  _526
REMARK  225  A    between atoms: _526  and  _527
REMARK  226  A    between atoms: _526  and  _529
REMARK  227  A    between atoms: _529  and  _530
REMARK  228  A    between atoms: _533  and  _535
REMARK  229  A    between atoms: _535  and  _536
REMARK  230  A    between atoms: _535  and  _538
REMARK  231  A    between atoms: _538  and  _539
REMARK  232  A    between atoms: _539  and  _540
REMARK  233  A    between atoms: _542  and  _544
REMARK  234  A    between atoms: _544  and  _545
REMARK  235  A    between atoms: _544  and  _547
REMARK  236  A    between atoms: _547  and  _548
REMARK  237  A    between atoms: _548  and  _549
REMARK  238  A    between atoms: _549  and  _550
REMARK  239  A    between atoms: _550  and  _551
REMARK  240  A    between atoms: _555  and  _557
REMARK  241  A    between atoms: _557  and  _558
REMARK  242  A    between atoms: _557  and  _560
REMARK  243  A    between atoms: _560  and  _561
REMARK  244  A    between atoms: _564  and  _566
REMARK  245  A    between atoms: _566  and  _567
REMARK  246  A    between atoms: _570  and  _572
REMARK  247  A    between atoms: _572  and  _573
REMARK  248  A    between atoms: _572  and  _575
REMARK  249  A    between atoms: _575  and  _576
REMARK  250  A    between atoms: _579  and  _581
REMARK  251  A    between atoms: _581  and  _582
REMARK  252  A    between atoms: _581  and  _584
REMARK  253  A    between atoms: _584  and  _585
REMARK  254  A    between atoms: _591  and  _593
REMARK  255  A    between atoms: _593  and  _594
REMARK  256  A    between atoms: _596  and  _598
REMARK  257  A    between atoms: _598  and  _599
REMARK  258  A    between atoms: _598  and  _601
REMARK  259  A    between atoms: _601  and  _602
REMARK                            x       y       z     vdW  Elec       q    Type
REMARK                         _______ _______ _______ _____ _____    ______ ____
ROOT
ATOM      1  CA  ILE A   1       2.850 -11.369  -0.189  0.00  0.00    +0.133 C 
ENDROOT
BRANCH   1   2
ATOM      2  N   ILE A   1       2.374 -11.605  -1.557  0.00  0.00    -0.239 NA
ATOM      3  H   ILE A   1       1.862 -12.488  -1.756  0.00  0.00    +0.142 HD
ENDBRANCH   1   2
BRANCH   1   4
ATOM      4  CB  ILE A   1       1.709 -11.564   0.805  0.00  0.00    +0.023 C 
ATOM      5  CG2 ILE A   1       2.204 -11.674   2.241  0.00  0.00    +0.002 C 
BRANCH   4   6
ATOM      6  CG1 ILE A   1       0.613 -10.463   0.609  0.00  0.00    +0.002 C 
ATOM      7  CD1 ILE A   1      -0.733 -10.819   1.235  0.00  0.00    +0.000 C 
ENDBRANCH   4   6
ENDBRANCH   1   4
BRANCH   1   8
ATOM      8  C   ILE A   1       3.934 -12.429   0.049  0.00  0.00    +0.224 C 
ATOM      9  O   ILE A   1       3.808 -13.622  -0.359  0.00  0.00    -0.287 OA
ENDBRANCH   1   8
TORSDOF 4
REMARK  Name = ../refined-set-2016/4c2v/4c2v_pocket.pdb
REMARK  259 active torsions:
REMARK  status: ('A' for Active; 'I' for Inactive)
REMARK    1  A    between atoms: _1  and  _3
REMARK    2  A    between atoms: _3  and  _4
REMARK    3  A    between atoms: _3  and  _6
REMARK    4  A    between atoms: _6  and  _7
REMARK    5  A    between atoms: _7  and  _8
REMARK    6  A    between atoms: _8  and  _9
REMARK    7  A    between atoms: _19  and  _20
REMARK    8  A    between atoms: _25  and  _27
REMARK    9  A    between atoms: _27  and  _28
REMARK   10  A    between atoms: _27  and  _30
REMARK   11  A    between atoms: _30  and  _31
REMARK   12  A    between atoms: _34  and  _36
REMARK   13  A    between atoms: _36  and  _37
REMARK   14  A    between atoms: _39  and  _41
REMARK   15  A    between atoms: _41  and  _42
REMARK   16  A    between atoms: _41  and  _44
REMARK   17  A    between atoms: _44  and  _45
REMARK   18  A    between atoms: _45  and  _46
REMARK   19  A    between atoms: _46  and  _47
REMARK   20  A    between atoms: _47  and  _48
REMARK   21  A    between atoms: _52  and  _54
REMARK   22  A    between atoms: _54  and  _55
REMARK   23  A    between atoms: _57  and  _59
REMARK   24  A    between atoms: _59  and  _60
REMARK   25  A    between atoms: _59  and  _62
REMARK   26  A    between atoms: _62  and  _63
REMARK   27  A    between atoms: _63  and  _64
REMARK   28  A    between atoms: _64  and  _65
REMARK   29  A    between atoms: _65  and  _66
REMARK   30  A    between atoms: _70  and  _72
REMARK   31  A    between atoms: _72  and  _73
REMARK   32  A    between atoms: _72  and  _75
REMARK   33  A    between atoms: _75  and  _76
REMARK   34  A    between atoms: _82  and  _84
REMARK   35  A    between atoms: _84  and  _85
REMARK   36  A    between atoms: _87  and  _89
REMARK   37  A    between atoms: _89  and  _90
REMARK   38  A    between atoms: _89  and  _92
REMARK   39  A    between atoms: _92  and  _93
REMARK   40  A    between atoms: _98  and  _100
REMARK   41  A    between atoms: _100  and  _101
REMARK   42  A    between atoms: _100  and  _103
REMARK   43  A    between atoms: _106  and  _108
REMARK   44  A    between atoms: _108  and  _109
REMARK   45  A    between atoms: _108  and  _111
REMARK   46  A    between atoms: _111  and  _112
REMARK   47  A    between atoms: _117  and  _118
REMARK   48  A    between atoms: _120  and  _122
REMARK   49  A    between atoms: _122  and  _123
REMARK   50  A    between atoms: _122  and  _125
REMARK   51  A    between atoms: _125  and  _126
REMARK   52  A    between atoms: _129  and  _131
REMARK   53  A    between atoms: _131  and  _132
REMARK   54  A    between atoms: _135  and  _137
REMARK   55  A    between atoms: _137  and  _138
REMARK   56  A    between atoms: _137  and  _140
REMARK   57  A    between atoms: _140  and  _141
REMARK   58  A    between atoms: _141  and  _142
REMARK   59  A    between atoms: _144  and  _146
REMARK   60  A    between atoms: _146  and  _147
REMARK   61  A    between atoms: _150  and  _152
REMARK   62  A    between atoms: _152  and  _153
REMARK   63  A    between atoms: _152  and  _155
REMARK   64  A    between atoms: _155  and  _156
REMARK   65  A    between atoms: _159  and  _161
REMARK   66  A    between atoms: _161  and  _162
REMARK   67  A    between atoms: _161  and  _164
REMARK   68  A    between atoms: _164  and  _165
REMARK   69  A    between atoms: _165  and  _166
REMARK   70  A    between atoms: _166  and  _167
REMARK   71  A    between atoms: _167  and  _168
REMARK   72  A    between atoms: _172  and  _174
REMARK   73  A    between atoms: _174  and  _175
REMARK   74  A    between atoms: _174  and  _177
REMARK   75  A    between atoms: _180  and  _182
REMARK   76  A    between atoms: _182  and  _183
REMARK   77  A    between atoms: _182  and  _185
REMARK   78  A    between atoms: _185  and  _186
REMARK   79  A    between atoms: _189  and  _191
REMARK   80  A    between atoms: _191  and  _192
REMARK   81  A    between atoms: _191  and  _194
REMARK   82  A    between atoms: _194  and  _195
REMARK   83  A    between atoms: _198  and  _200
REMARK   84  A    between atoms: _200  and  _201
REMARK   85  A    between atoms: _200  and  _203
REMARK   86  A    between atoms: _203  and  _204
REMARK   87  A    between atoms: _204  and  _205
REMARK   88  A    between atoms: _210  and  _212
REMARK   89  A    between atoms: _212  and  _213
REMARK   90  A    between atoms: _212  and  _215
REMARK   91  A    between atoms: _215  and  _216
REMARK   92  A    between atoms: _219  and  _221
REMARK   93  A    between atoms: _221  and  _222
REMARK   94  A    between atoms: _221  and  _224
REMARK   95  A    between atoms: _224  and  _225
REMARK   96  A    between atoms: _225  and  _226
REMARK   97  A    between atoms: _226  and  _227
REMARK   98  A    between atoms: _236  and  _238
REMARK   99  A    between atoms: _238  and  _239
REMARK  100  A    between atoms: _238  and  _241
REMARK  101  A    between atoms: _241  and  _242
REMARK  102  A    between atoms: _242  and  _243
REMARK  103  A    between atoms: _243  and  _244
REMARK  104  A    between atoms: _253  and  _255
REMARK  105  A    between atoms: _255  and  _256
REMARK  106  A    between atoms: _255  and  _258
REMARK  107  A    between atoms: _258  and  _259
REMARK  108  A    between atoms: _259  and  _260
REMARK  109  A    between atoms: _263  and  _265
REMARK  110  A    between atoms: _265  and  _266
REMARK  111  A    between atoms: _265  and  _268
REMARK  112  A    between atoms: _268  and  _269
REMARK  113  A    between atoms: _272  and  _274
REMARK  114  A    between atoms: _274  and  _275
REMARK  115  A    between atoms: _274  and  _277
REMARK  116  A    between atoms: _277  and  _278
REMARK  117  A    between atoms: _278  and  _279
REMARK  118  A    between atoms: _282  and  _284
REMARK  119  A    between atoms: _284  and  _285
REMARK  120  A    between atoms: _284  and  _287
REMARK  121  A    between atoms: _287  and  _288
REMARK  122  A    between atoms: _291  and  _293
REMARK  123  A    between atoms: _293  and  _294
REMARK  124  A    between atoms: _293  and  _296
REMARK  125  A    between atoms: _296  and  _297
REMARK  126  A    between atoms: _297  and  _298
REMARK  127  A    between atoms: _303  and  _305
REMARK  128  A    between atoms: _305  and  _306
REMARK  129  A    between atoms: _305  and  _308
REMARK  130  A    between atoms: _308  and  _309
REMARK  131  A    between atoms: _311  and  _313
REMARK  132  A    between atoms: _313  and  _314
REMARK  133  A    between atoms: _313  and  _316
REMARK  134  A    between atoms: _316  and  _317
REMARK  135  A    between atoms: _320  and  _322
REMARK  136  A    between atoms: _322  and  _323
REMARK  137  A    between atoms: _322  and  _325
REMARK  138  A    between atoms: _325  and  _326
REMARK  139  A    between atoms: _326  and  _327
REMARK  140  A    between atoms: _327  and  _328
REMARK  141  A    between atoms: _337  and  _339
REMARK  142  A    between atoms: _339  and  _340
REMARK  143  A    between atoms: _339  and  _342
REMARK  144  A    between atoms: _342  and  _343
REMARK  145  A    between atoms: _343  and  _344
REMARK  146  A    between atoms: _346  and  _348
REMARK  147  A    between atoms: _348  and  _349
REMARK  148  A    between atoms: _348  and  _351
REMARK  149  A    between atoms: _351  and  _352
REMARK  150  A    between atoms: _355  and  _357
REMARK  151  A    between atoms: _357  and  _358
REMARK  152  A    between atoms: _357  and  _360
REMARK  153  A    between atoms: _360  and  _361
REMARK  154  A    between atoms: _364  and  _366
REMARK  155  A    between atoms: _366  and  _367
REMARK  156  A    between atoms: _366  and  _369
REMARK  157  A    between atoms: _369  and  _370
REMARK  158  A    between atoms: _370  and  _371
REMARK  159  A    between atoms: _373  and  _375
REMARK  160  A    between atoms: _375  and  _376
REMARK  161  A    between atoms: _375  and  _378
REMARK  162  A    between atoms: _378  and  _379
REMARK  163  A    between atoms: _382  and  _384
REMARK  164  A    between atoms: _384  and  _385
REMARK  165  A    between atoms: _384  and  _387
REMARK  166  A    between atoms: _387  and  _388
REMARK  167  A    between atoms: _388  and  _389
REMARK  168  A    between atoms: _392  and  _394
REMARK  169  A    between atoms: _394  and  _395
REMARK  170  A    between atoms: _394  and  _397
REMARK  171  A    between atoms: _397  and  _398
REMARK  172  A    between atoms: _404  and  _406
REMARK  173  A    between atoms: _406  and  _407
REMARK  174  A    between atoms: _411  and  _412
REMARK  175  A    between atoms: _417  and  _419
REMARK  176  A    between atoms: _419  and  _420
REMARK  177  A    between atoms: _419  and  _422
REMARK  178  A    between atoms: _422  and  _423
REMARK  179  A    between atoms: _423  and  _424
REMARK  180  A    between atoms: _424  and  _425
REMARK  181  A    between atoms: _434  and  _436
REMARK  182  A    between atoms: _436  and  _437
REMARK  183  A    between atoms: _439  and  _441
REMARK  184  A    between atoms: _441  and  _442
REMARK  185  A    between atoms: _441  and  _444
REMARK  186  A    between atoms: _444  and  _445
REMARK  187  A    between atoms: _445  and  _446
REMARK  188  A    between atoms: _449  and  _451
REMARK  189  A    between atoms: _451  and  _452
REMARK  190  A    between atoms: _451  and  _454
REMARK  191  A    between atoms: _454  and  _455
REMARK  192  A    between atoms: _458  and  _460
REMARK  193  A    between atoms: _460  and  _461
REMARK  194  A    between atoms: _460  and  _463
REMARK  195  A    between atoms: _463  and  _464
REMARK  196  A    between atoms: _464  and  _465
REMARK  197  A    between atoms: _465  and  _466
REMARK  198  A    between atoms: _466  and  _467
REMARK  199  A    between atoms: _471  and  _473
REMARK  200  A    between atoms: _473  and  _474
REMARK  201  A    between atoms: _473  and  _476
REMARK  202  A    between atoms: _476  and  _477
REMARK  203  A    between atoms: _477  and  _478
REMARK  204  A    between atoms: _481  and  _483
REMARK  205  A    between atoms: _483  and  _484
REMARK  206  A    between atoms: _483  and  _486
REMARK  207  A    between atoms: _486  and  _487
REMARK  208  A    between atoms: _487  and  _488
REMARK  209  A    between atoms: _488  and  _489
REMARK  210  A    between atoms: _489  and  _490
REMARK  211  A    between atoms: _494  and  _496
REMARK  212  A    between atoms: _496  and  _497
REMARK  213  A    between atoms: _496  and  _499
REMARK  214  A    between atoms: _499  and  _500
REMARK  215  A    between atoms: _500  and  _501
REMARK  216  A    between atoms: _504  and  _506
REMARK  217  A    between atoms: _506  and  _507
REMARK  218  A    between atoms: _506  and  _509
REMARK  219  A    between atoms: _509  and  _510
REMARK  220  A    between atoms: _515  and  _517
REMARK  221  A    between atoms: _517  and  _518
REMARK  222  A    between atoms: _517  and  _520
REMARK  223  A    between atoms: _520  and  _521
REMARK  224  A    between atoms: _524  and  _526
REMARK  225  A    between atoms: _526  and  _527
REMARK  226  A    between atoms: _526  and  _529
REMARK  227  A    between atoms: _529  and  _530
REMARK  228  A    between atoms: _533  and  _535
REMARK  229  A    between atoms: _535  and  _536
REMARK  230  A    between atoms: _535  and  _538
REMARK  231  A    between atoms: _538  and  _539
REMARK  232  A    between atoms: _539  and  _540
REMARK  233  A    between atoms: _542  and  _544
REMARK  234  A    between atoms: _544  and  _545
REMARK  235  A    between atoms: _544  and  _547
REMARK  236  A    between atoms: _547  and  _548
REMARK  237  A    between atoms: _548  and  _549
REMARK  238  A    between atoms: _549  and  _550
REMARK  239  A    between atoms: _550  and  _551
REMARK  240  A    between atoms: _555  and  _557
REMARK  241  A    between atoms: _557  and  _558
REMARK  242  A    between atoms: _557  and  _560
REMARK  243  A    between atoms: _560  and  _561
REMARK  244  A    between atoms: _564  and  _566
REMARK  245  A    between atoms: _566  and  _567
REMARK  246  A    between atoms: _570  and  _572
REMARK  247  A    between atoms: _572  and  _573
REMARK  248  A    between atoms: _572  and  _575
REMARK  249  A    between atoms: _575  and  _576
REMARK  250  A    between atoms: _579  and  _581
REMARK  251  A    between atoms: _581  and  _582
REMARK  252  A    between atoms: _581  and  _584
REMARK  253  A    between atoms: _584  and  _585
REMARK  254  A    between atoms: _591  and  _593
REMARK  255  A    between atoms: _593  and  _594
REMARK  256  A    between atoms: _596  and  _598
REMARK  257  A    between atoms: _598  and  _599
REMARK  258  A    between atoms: _598  and  _601
REMARK  259  A    between atoms: _601  and  _602
REMARK                            x       y       z     vdW  Elec       q    Type
REMARK                         _______ _______ _______ _____ _____    ______ ____
ROOT
ATOM      1  CA  ALA A   6      14.767 -25.919   8.572  0.00  0.00    +0.149 C 
ATOM      2  CB  ALA A   6      13.385 -26.439   9.005  0.00  0.00    +0.031 C 
ENDROOT
BRANCH   1   3
ATOM      3  C   ALA A   6      15.512 -26.942   7.800  0.00  0.00    +0.244 C 
ATOM      4  N   PRO A   7      16.864 -26.990   7.953  0.00  0.00    -0.264 N 
ATOM      5  CD  PRO A   7      17.710 -26.227   8.869  0.00  0.00    +0.120 C 
ATOM      6  CG  PRO A   7      19.081 -26.492   8.357  0.00  0.00    -0.007 C 
ATOM      7  CB  PRO A   7      19.075 -27.541   7.379  0.00  0.00    -0.000 C 
ATOM      8  CA  PRO A   7      17.627 -27.816   6.997  0.00  0.00    +0.175 C 
ATOM      9  O   ALA A   6      14.971 -27.634   6.987  0.00  0.00    -0.273 OA
BRANCH   8  10
ATOM     10  C   PRO A   7      17.372 -29.288   6.886  0.00  0.00    +0.245 C 
ATOM     11  N   ARG A   8      16.873 -29.900   7.968  0.00  0.00    -0.297 N 
ATOM     12  H   ARG A   8      16.742 -29.358   8.846  0.00  0.00    +0.150 HD
ATOM     13  O   PRO A   7      17.590 -29.840   5.839  0.00  0.00    -0.273 OA
BRANCH  11  14
ATOM     14  CA  ARG A   8      16.519 -31.276   7.939  0.00  0.00    +0.149 C 
BRANCH  14  15
ATOM     15  C   ARG A   8      15.067 -31.563   7.500  0.00  0.00    +0.241 C 
ATOM     16  O   ARG A   8      14.721 -32.714   7.300  0.00  0.00    -0.273 OA
ATOM     17  N   GLY A   9      14.298 -30.518   7.288  0.00  0.00    -0.295 N 
ATOM     18  H   GLY A   9      14.595 -29.582   7.630  0.00  0.00    +0.150 HD
BRANCH  17  19
ATOM     19  CA  GLY A   9      13.024 -30.661   6.572  0.00  0.00    +0.176 C 
BRANCH  19  20
ATOM     20  C   GLY A   9      11.902 -31.234   7.441  0.00  0.00    +0.243 C 
ATOM     21  O   GLY A   9      11.828 -30.995   8.639  0.00  0.00    -0.273 OA
ATOM     22  N   GLU A  10      10.969 -31.897   6.786  0.00  0.00    -0.297 N 
ATOM     23  H   GLU A  10      11.144 -32.139   5.790  0.00  0.00    +0.150 HD
BRANCH  22  24
ATOM     24  CA  GLU A  10       9.693 -32.312   7.391  0.00  0.00    +0.149 C 
BRANCH  24  25
ATOM     25  C   GLU A  10       9.875 -33.446   8.339  0.00  0.00    +0.241 C 
ATOM     26  N   LEU A  11       9.430 -33.279   9.576  0.00  0.00    -0.298 N 
ATOM     27  H   LEU A  11       9.087 -32.343   9.873  0.00  0.00    +0.150 HD
ATOM     28  O   GLU A  10      10.402 -34.533   7.972  0.00  0.00    -0.273 OA
BRANCH  26  29
ATOM     29  CA  LEU A  11       9.412 -34.396  10.539  0.00  0.00    +0.137 C 
BRANCH  29  30
ATOM     30  C   LEU A  11       8.592 -35.570  10.072  0.00  0.00    +0.227 C 
ATOM     31  O   LEU A  11       8.959 -36.673  10.369  0.00  0.00    -0.286 OA
ENDBRANCH  29  30
BRANCH  29  32
ATOM     32  CB  LEU A  11       9.034 -33.888  11.941  0.00  0.00    +0.028 C 
BRANCH  32  33
ATOM     33  CG  LEU A  11       9.260 -34.802  13.148  0.00  0.00    +0.002 C 
ATOM     34  CD2 LEU A  11       9.464 -33.927  14.392  0.00  0.00    +0.000 C 
ATOM     35  CD1 LEU A  11       8.150 -35.782  13.320  0.00  0.00    +0.000 C 
ENDBRANCH  32  33
ENDBRANCH  29  32
ENDBRANCH  26  29
ENDBRANCH  24  25
BRANCH  24  36
ATOM     36  CB  GLU A  10       8.754 -32.764   6.335  0.00  0.00    +0.041 C 
BRANCH  36  37
ATOM     37  CG  GLU A  10       8.420 -31.716   5.334  0.00  0.00    +0.116 C 
BRANCH  37  38
ATOM     38  CD  GLU A  10       7.369 -30.768   5.761  0.00  0.00    +0.365 C 
ATOM     39  OE2 GLU A  10       6.764 -30.961   6.822  0.00  0.00    -0.246 OA
ATOM     40  OE1 GLU A  10       7.055 -29.820   4.955  0.00  0.00    -0.246 OA
ENDBRANCH  37  38
ENDBRANCH  36  37
ENDBRANCH  24  36
ENDBRANCH  22  24
ENDBRANCH  19  20
ENDBRANCH  17  19
ENDBRANCH  14  15
BRANCH  14  41
ATOM     41  CB  ARG A   8      16.875 -31.928   9.261  0.00  0.00    +0.033 C 
BRANCH  41  42
ATOM     42  CG  ARG A   8      18.373 -32.153   9.416  0.00  0.00    +0.045 C 
BRANCH  42  43
ATOM     43  CD  ARG A   8      18.690 -33.057  10.583  0.00  0.00    +0.174 C 
BRANCH  43  44
ATOM     44  NE  ARG A   8      20.045 -33.059  11.019  0.00  0.00    -0.265 N 
ATOM     45  CZ  ARG A   8      20.485 -33.842  12.011  0.00  0.00    +0.342 C 
ATOM     46  NH2 ARG A   8      19.670 -34.727  12.627  0.00  0.00    -0.292 N 
ATOM     47 HH21 ARG A   8      20.037 -35.324  13.395  0.00  0.00    +0.255 HD
ATOM     48 HH22 ARG A   8      18.676 -34.811  12.332  0.00  0.00    +0.255 HD
ATOM     49  NH1 ARG A   8      21.745 -33.719  12.383  0.00  0.00    -0.292 N 
ATOM     50 HH11 ARG A   8      22.121 -34.312  13.151  0.00  0.00    +0.255 HD
ATOM     51 HH12 ARG A   8      22.362 -33.030  11.909  0.00  0.00    +0.255 HD
ATOM     52  HE  ARG A   8      20.721 -32.425  10.547  0.00  0.00    +0.259 HD
ENDBRANCH  43  44
ENDBRANCH  42  43
ENDBRANCH  41  42
ENDBRANCH  14  41
ENDBRANCH  11  14
ENDBRANCH   8  10
ENDBRANCH   1   3
BRANCH   1  55
ATOM     53  C   PHE A   5      15.291 -23.559   7.964  0.00  0.00    +0.241 C 
ATOM     54  O   PHE A   5      16.175 -23.420   8.835  0.00  0.00    -0.273 OA
ATOM     55  N   ALA A   6      14.622 -24.688   7.752  0.00  0.00    -0.297 N 
ATOM     56  H   ALA A   6      13.951 -24.711   6.958  0.00  0.00    +0.150 HD
BRANCH  53  57
ATOM     57  CA  PHE A   5      14.994 -22.376   7.015  0.00  0.00    +0.153 C 
BRANCH  57  60
ATOM     58  C   GLU A   4      13.620 -20.827   8.270  0.00  0.00    +0.241 C 
ATOM     59  O   GLU A   4      12.614 -21.484   8.054  0.00  0.00    -0.273 OA
ATOM     60  N   PHE A   5      14.789 -21.173   7.707  0.00  0.00    -0.297 N 
ATOM     61  H   PHE A   5      15.588 -20.512   7.789  0.00  0.00    +0.150 HD
BRANCH  58  62
ATOM     62  CA  GLU A   4      13.602 -19.642   9.162  0.00  0.00    +0.149 C 
BRANCH  62  64
ATOM     63  C   LEU A   3      12.313 -18.253   7.644  0.00  0.00    +0.241 C 
ATOM     64  N   GLU A   4      12.530 -18.752   8.881  0.00  0.00    -0.297 N 
ATOM     65  H   GLU A   4      11.891 -18.475   9.654  0.00  0.00    +0.150 HD
ATOM     66  O   LEU A   3      13.127 -18.410   6.761  0.00  0.00    -0.273 OA
BRANCH  63  67
ATOM     67  CA  LEU A   3      10.963 -17.645   7.439  0.00  0.00    +0.149 C 
BRANCH  67  70
ATOM     68  C   MET A   2      10.631 -15.369   6.664  0.00  0.00    +0.241 C 
ATOM     69  O   MET A   2      10.378 -14.884   7.750  0.00  0.00    -0.273 OA
ATOM     70  N   LEU A   3      11.029 -16.567   6.412  0.00  0.00    -0.297 N 
ATOM     71  H   LEU A   3      11.406 -16.788   5.468  0.00  0.00    +0.150 HD
BRANCH  68  72
ATOM     72  CA  MET A   2      10.570 -14.413   5.394  0.00  0.00    +0.149 C 
BRANCH  72  74
ATOM     73  C   LEU A   1       8.335 -14.788   4.462  0.00  0.00    +0.238 C 
ATOM     74  N   MET A   2       9.176 -14.080   5.235  0.00  0.00    -0.297 N 
ATOM     75  H   MET A   2       8.804 -13.252   5.743  0.00  0.00    +0.150 HD
ATOM     76  O   LEU A   1       8.675 -15.781   3.819  0.00  0.00    -0.274 OA
BRANCH  73  77
ATOM     77  CA  LEU A   1       6.906 -14.262   4.390  0.00  0.00    +0.145 C 
BRANCH  77  78
ATOM     78  N   LEU A   1       6.575 -14.050   2.985  0.00  0.00    -0.238 NA
ATOM     79  H   LEU A   1       6.422 -14.876   2.371  0.00  0.00    +0.142 HD
ENDBRANCH  77  78
BRANCH  77  80
ATOM     80  CB  LEU A   1       5.937 -15.264   5.035  0.00  0.00    +0.026 C 
BRANCH  80  81
ATOM     81  CG  LEU A   1       4.466 -14.980   4.813  0.00  0.00    +0.002 C 
ATOM     82  CD2 LEU A   1       3.667 -16.177   5.439  0.00  0.00    +0.000 C 
ATOM     83  CD1 LEU A   1       4.035 -13.627   5.255  0.00  0.00    +0.000 C 
ENDBRANCH  80  81
ENDBRANCH  77  80
ENDBRANCH  73  77
ENDBRANCH  72  74
BRANCH  72  84
ATOM     84  CB  MET A   2      11.438 -13.215   5.616  0.00  0.00    +0.041 C 
BRANCH  84  85
ATOM     85  CG  MET A   2      11.445 -12.299   4.359  0.00  0.00    +0.060 C 
BRANCH  85  86
ATOM     86  SD  MET A   2      11.976 -10.606   4.763  0.00  0.00    -0.139 S 
ATOM     87  CE  MET A   2      13.584 -10.806   5.366  0.00  0.00    +0.069 C 
ENDBRANCH  85  86
ENDBRANCH  84  85
ENDBRANCH  72  84
ENDBRANCH  68  72
ENDBRANCH  67  70
BRANCH  67  88
ATOM     88  CB  LEU A   3       9.997 -18.726   6.951  0.00  0.00    +0.029 C 
BRANCH  88  89
ATOM     89  CG  LEU A   3       8.484 -18.307   6.849  0.00  0.00    +0.002 C 
ATOM     90  CD2 LEU A   3       7.872 -18.140   8.222  0.00  0.00    +0.000 C 
ATOM     91  CD1 LEU A   3       7.800 -19.374   6.051  0.00  0.00    +0.000 C 
ENDBRANCH  88  89
ENDBRANCH  67  88
ENDBRANCH  63  67
ENDBRANCH  62  64
BRANCH  62  92
ATOM     92  CB  GLU A   4      13.518 -20.030  10.654  0.00  0.00    +0.041 C 
BRANCH  92  93
ATOM     93  CG  GLU A   4      14.625 -20.956  11.135  0.00  0.00    +0.116 C 
BRANCH  93  94
ATOM     94  CD  GLU A   4      14.453 -21.364  12.602  0.00  0.00    +0.365 C 
ATOM     95  OE2 GLU A   4      13.546 -20.924  13.301  0.00  0.00    -0.246 OA
ATOM     96  OE1 GLU A   4      15.380 -22.059  13.119  0.00  0.00    -0.246 OA
ENDBRANCH  93  94
ENDBRANCH  92  93
ENDBRANCH  62  92
ENDBRANCH  58  62
ENDBRANCH  57  60
BRANCH  57  97
ATOM     97  CB  PHE A   5      16.172 -22.250   5.996  0.00  0.00    +0.055 C 
BRANCH  97  98
ATOM     98  CG  PHE A   5      16.490 -23.503   5.233  0.00  0.00    -0.020 A 
ATOM     99  CD2 PHE A   5      17.811 -23.940   5.177  0.00  0.00    -0.004 A 
ATOM    100  CE2 PHE A   5      18.111 -25.127   4.523  0.00  0.00    -0.000 A 
ATOM    101  CZ  PHE A   5      17.200 -25.768   3.742  0.00  0.00    -0.000 A 
ATOM    102  CE1 PHE A   5      15.914 -25.347   3.764  0.00  0.00    -0.000 A 
ATOM    103  CD1 PHE A   5      15.556 -24.208   4.490  0.00  0.00    -0.004 A 
ENDBRANCH  97  98
ENDBRANCH  57  97
ENDBRANCH  53  57
ENDBRANCH   1  55
TORSDOF 42
REMARK  Name = ../refined-set-2016/4c2v/4c2v_pocket.pdb
REMARK  259 active torsions:
REMARK  status: ('A' for Active; 'I' for Inactive)
REMARK    1  A    between atoms: _1  and  _3
REMARK    2  A    between atoms: _3  and  _4
REMARK    3  A    between atoms: _3  and  _6
REMARK    4  A    between atoms: _6  and  _7
REMARK    5  A    between atoms: _7  and  _8
REMARK    6  A    between atoms: _8  and  _9
REMARK    7  A    between atoms: _19  and  _20
REMARK    8  A    between atoms: _25  and  _27
REMARK    9  A    between atoms: _27  and  _28
REMARK   10  A    between atoms: _27  and  _30
REMARK   11  A    between atoms: _30  and  _31
REMARK   12  A    between atoms: _34  and  _36
REMARK   13  A    between atoms: _36  and  _37
REMARK   14  A    between atoms: _39  and  _41
REMARK   15  A    between atoms: _41  and  _42
REMARK   16  A    between atoms: _41  and  _44
REMARK   17  A    between atoms: _44  and  _45
REMARK   18  A    between atoms: _45  and  _46
REMARK   19  A    between atoms: _46  and  _47
REMARK   20  A    between atoms: _47  and  _48
REMARK   21  A    between atoms: _52  and  _54
REMARK   22  A    between atoms: _54  and  _55
REMARK   23  A    between atoms: _57  and  _59
REMARK   24  A    between atoms: _59  and  _60
REMARK   25  A    between atoms: _59  and  _62
REMARK   26  A    between atoms: _62  and  _63
REMARK   27  A    between atoms: _63  and  _64
REMARK   28  A    between atoms: _64  and  _65
REMARK   29  A    between atoms: _65  and  _66
REMARK   30  A    between atoms: _70  and  _72
REMARK   31  A    between atoms: _72  and  _73
REMARK   32  A    between atoms: _72  and  _75
REMARK   33  A    between atoms: _75  and  _76
REMARK   34  A    between atoms: _82  and  _84
REMARK   35  A    between atoms: _84  and  _85
REMARK   36  A    between atoms: _87  and  _89
REMARK   37  A    between atoms: _89  and  _90
REMARK   38  A    between atoms: _89  and  _92
REMARK   39  A    between atoms: _92  and  _93
REMARK   40  A    between atoms: _98  and  _100
REMARK   41  A    between atoms: _100  and  _101
REMARK   42  A    between atoms: _100  and  _103
REMARK   43  A    between atoms: _106  and  _108
REMARK   44  A    between atoms: _108  and  _109
REMARK   45  A    between atoms: _108  and  _111
REMARK   46  A    between atoms: _111  and  _112
REMARK   47  A    between atoms: _117  and  _118
REMARK   48  A    between atoms: _120  and  _122
REMARK   49  A    between atoms: _122  and  _123
REMARK   50  A    between atoms: _122  and  _125
REMARK   51  A    between atoms: _125  and  _126
REMARK   52  A    between atoms: _129  and  _131
REMARK   53  A    between atoms: _131  and  _132
REMARK   54  A    between atoms: _135  and  _137
REMARK   55  A    between atoms: _137  and  _138
REMARK   56  A    between atoms: _137  and  _140
REMARK   57  A    between atoms: _140  and  _141
REMARK   58  A    between atoms: _141  and  _142
REMARK   59  A    between atoms: _144  and  _146
REMARK   60  A    between atoms: _146  and  _147
REMARK   61  A    between atoms: _150  and  _152
REMARK   62  A    between atoms: _152  and  _153
REMARK   63  A    between atoms: _152  and  _155
REMARK   64  A    between atoms: _155  and  _156
REMARK   65  A    between atoms: _159  and  _161
REMARK   66  A    between atoms: _161  and  _162
REMARK   67  A    between atoms: _161  and  _164
REMARK   68  A    between atoms: _164  and  _165
REMARK   69  A    between atoms: _165  and  _166
REMARK   70  A    between atoms: _166  and  _167
REMARK   71  A    between atoms: _167  and  _168
REMARK   72  A    between atoms: _172  and  _174
REMARK   73  A    between atoms: _174  and  _175
REMARK   74  A    between atoms: _174  and  _177
REMARK   75  A    between atoms: _180  and  _182
REMARK   76  A    between atoms: _182  and  _183
REMARK   77  A    between atoms: _182  and  _185
REMARK   78  A    between atoms: _185  and  _186
REMARK   79  A    between atoms: _189  and  _191
REMARK   80  A    between atoms: _191  and  _192
REMARK   81  A    between atoms: _191  and  _194
REMARK   82  A    between atoms: _194  and  _195
REMARK   83  A    between atoms: _198  and  _200
REMARK   84  A    between atoms: _200  and  _201
REMARK   85  A    between atoms: _200  and  _203
REMARK   86  A    between atoms: _203  and  _204
REMARK   87  A    between atoms: _204  and  _205
REMARK   88  A    between atoms: _210  and  _212
REMARK   89  A    between atoms: _212  and  _213
REMARK   90  A    between atoms: _212  and  _215
REMARK   91  A    between atoms: _215  and  _216
REMARK   92  A    between atoms: _219  and  _221
REMARK   93  A    between atoms: _221  and  _222
REMARK   94  A    between atoms: _221  and  _224
REMARK   95  A    between atoms: _224  and  _225
REMARK   96  A    between atoms: _225  and  _226
REMARK   97  A    between atoms: _226  and  _227
REMARK   98  A    between atoms: _236  and  _238
REMARK   99  A    between atoms: _238  and  _239
REMARK  100  A    between atoms: _238  and  _241
REMARK  101  A    between atoms: _241  and  _242
REMARK  102  A    between atoms: _242  and  _243
REMARK  103  A    between atoms: _243  and  _244
REMARK  104  A    between atoms: _253  and  _255
REMARK  105  A    between atoms: _255  and  _256
REMARK  106  A    between atoms: _255  and  _258
REMARK  107  A    between atoms: _258  and  _259
REMARK  108  A    between atoms: _259  and  _260
REMARK  109  A    between atoms: _263  and  _265
REMARK  110  A    between atoms: _265  and  _266
REMARK  111  A    between atoms: _265  and  _268
REMARK  112  A    between atoms: _268  and  _269
REMARK  113  A    between atoms: _272  and  _274
REMARK  114  A    between atoms: _274  and  _275
REMARK  115  A    between atoms: _274  and  _277
REMARK  116  A    between atoms: _277  and  _278
REMARK  117  A    between atoms: _278  and  _279
REMARK  118  A    between atoms: _282  and  _284
REMARK  119  A    between atoms: _284  and  _285
REMARK  120  A    between atoms: _284  and  _287
REMARK  121  A    between atoms: _287  and  _288
REMARK  122  A    between atoms: _291  and  _293
REMARK  123  A    between atoms: _293  and  _294
REMARK  124  A    between atoms: _293  and  _296
REMARK  125  A    between atoms: _296  and  _297
REMARK  126  A    between atoms: _297  and  _298
REMARK  127  A    between atoms: _303  and  _305
REMARK  128  A    between atoms: _305  and  _306
REMARK  129  A    between atoms: _305  and  _308
REMARK  130  A    between atoms: _308  and  _309
REMARK  131  A    between atoms: _311  and  _313
REMARK  132  A    between atoms: _313  and  _314
REMARK  133  A    between atoms: _313  and  _316
REMARK  134  A    between atoms: _316  and  _317
REMARK  135  A    between atoms: _320  and  _322
REMARK  136  A    between atoms: _322  and  _323
REMARK  137  A    between atoms: _322  and  _325
REMARK  138  A    between atoms: _325  and  _326
REMARK  139  A    between atoms: _326  and  _327
REMARK  140  A    between atoms: _327  and  _328
REMARK  141  A    between atoms: _337  and  _339
REMARK  142  A    between atoms: _339  and  _340
REMARK  143  A    between atoms: _339  and  _342
REMARK  144  A    between atoms: _342  and  _343
REMARK  145  A    between atoms: _343  and  _344
REMARK  146  A    between atoms: _346  and  _348
REMARK  147  A    between atoms: _348  and  _349
REMARK  148  A    between atoms: _348  and  _351
REMARK  149  A    between atoms: _351  and  _352
REMARK  150  A    between atoms: _355  and  _357
REMARK  151  A    between atoms: _357  and  _358
REMARK  152  A    between atoms: _357  and  _360
REMARK  153  A    between atoms: _360  and  _361
REMARK  154  A    between atoms: _364  and  _366
REMARK  155  A    between atoms: _366  and  _367
REMARK  156  A    between atoms: _366  and  _369
REMARK  157  A    between atoms: _369  and  _370
REMARK  158  A    between atoms: _370  and  _371
REMARK  159  A    between atoms: _373  and  _375
REMARK  160  A    between atoms: _375  and  _376
REMARK  161  A    between atoms: _375  and  _378
REMARK  162  A    between atoms: _378  and  _379
REMARK  163  A    between atoms: _382  and  _384
REMARK  164  A    between atoms: _384  and  _385
REMARK  165  A    between atoms: _384  and  _387
REMARK  166  A    between atoms: _387  and  _388
REMARK  167  A    between atoms: _388  and  _389
REMARK  168  A    between atoms: _392  and  _394
REMARK  169  A    between atoms: _394  and  _395
REMARK  170  A    between atoms: _394  and  _397
REMARK  171  A    between atoms: _397  and  _398
REMARK  172  A    between atoms: _404  and  _406
REMARK  173  A    between atoms: _406  and  _407
REMARK  174  A    between atoms: _411  and  _412
REMARK  175  A    between atoms: _417  and  _419
REMARK  176  A    between atoms: _419  and  _420
REMARK  177  A    between atoms: _419  and  _422
REMARK  178  A    between atoms: _422  and  _423
REMARK  179  A    between atoms: _423  and  _424
REMARK  180  A    between atoms: _424  and  _425
REMARK  181  A    between atoms: _434  and  _436
REMARK  182  A    between atoms: _436  and  _437
REMARK  183  A    between atoms: _439  and  _441
REMARK  184  A    between atoms: _441  and  _442
REMARK  185  A    between atoms: _441  and  _444
REMARK  186  A    between atoms: _444  and  _445
REMARK  187  A    between atoms: _445  and  _446
REMARK  188  A    between atoms: _449  and  _451
REMARK  189  A    between atoms: _451  and  _452
REMARK  190  A    between atoms: _451  and  _454
REMARK  191  A    between atoms: _454  and  _455
REMARK  192  A    between atoms: _458  and  _460
REMARK  193  A    between atoms: _460  and  _461
REMARK  194  A    between atoms: _460  and  _463
REMARK  195  A    between atoms: _463  and  _464
REMARK  196  A    between atoms: _464  and  _465
REMARK  197  A    between atoms: _465  and  _466
REMARK  198  A    between atoms: _466  and  _467
REMARK  199  A    between atoms: _471  and  _473
REMARK  200  A    between atoms: _473  and  _474
REMARK  201  A    between atoms: _473  and  _476
REMARK  202  A    between atoms: _476  and  _477
REMARK  203  A    between atoms: _477  and  _478
REMARK  204  A    between atoms: _481  and  _483
REMARK  205  A    between atoms: _483  and  _484
REMARK  206  A    between atoms: _483  and  _486
REMARK  207  A    between atoms: _486  and  _487
REMARK  208  A    between atoms: _487  and  _488
REMARK  209  A    between atoms: _488  and  _489
REMARK  210  A    between atoms: _489  and  _490
REMARK  211  A    between atoms: _494  and  _496
REMARK  212  A    between atoms: _496  and  _497
REMARK  213  A    between atoms: _496  and  _499
REMARK  214  A    between atoms: _499  and  _500
REMARK  215  A    between atoms: _500  and  _501
REMARK  216  A    between atoms: _504  and  _506
REMARK  217  A    between atoms: _506  and  _507
REMARK  218  A    between atoms: _506  and  _509
REMARK  219  A    between atoms: _509  and  _510
REMARK  220  A    between atoms: _515  and  _517
REMARK  221  A    between atoms: _517  and  _518
REMARK  222  A    between atoms: _517  and  _520
REMARK  223  A    between atoms: _520  and  _521
REMARK  224  A    between atoms: _524  and  _526
REMARK  225  A    between atoms: _526  and  _527
REMARK  226  A    between atoms: _526  and  _529
REMARK  227  A    between atoms: _529  and  _530
REMARK  228  A    between atoms: _533  and  _535
REMARK  229  A    between atoms: _535  and  _536
REMARK  230  A    between atoms: _535  and  _538
REMARK  231  A    between atoms: _538  and  _539
REMARK  232  A    between atoms: _539  and  _540
REMARK  233  A    between atoms: _542  and  _544
REMARK  234  A    between atoms: _544  and  _545
REMARK  235  A    between atoms: _544  and  _547
REMARK  236  A    between atoms: _547  and  _548
REMARK  237  A    between atoms: _548  and  _549
REMARK  238  A    between atoms: _549  and  _550
REMARK  239  A    between atoms: _550  and  _551
REMARK  240  A    between atoms: _555  and  _557
REMARK  241  A    between atoms: _557  and  _558
REMARK  242  A    between atoms: _557  and  _560
REMARK  243  A    between atoms: _560  and  _561
REMARK  244  A    between atoms: _564  and  _566
REMARK  245  A    between atoms: _566  and  _567
REMARK  246  A    between atoms: _570  and  _572
REMARK  247  A    between atoms: _572  and  _573
REMARK  248  A    between atoms: _572  and  _575
REMARK  249  A    between atoms: _575  and  _576
REMARK  250  A    between atoms: _579  and  _581
REMARK  251  A    between atoms: _581  and  _582
REMARK  252  A    between atoms: _581  and  _584
REMARK  253  A    between atoms: _584  and  _585
REMARK  254  A    between atoms: _591  and  _593
REMARK  255  A    between atoms: _593  and  _594
REMARK  256  A    between atoms: _596  and  _598
REMARK  257  A    between atoms: _598  and  _599
REMARK  258  A    between atoms: _598  and  _601
REMARK  259  A    between atoms: _601  and  _602
REMARK                            x       y       z     vdW  Elec       q    Type
REMARK                         _______ _______ _______ _____ _____    ______ ____
ROOT
ATOM      1  C   LYS A   1       9.925 -38.497   6.941  0.00  0.00    +0.238 C 
ATOM      2  N   GLU A   2      10.575 -37.973   7.976  0.00  0.00    -0.298 N 
ATOM      3  H   GLU A   2      10.421 -36.973   8.215  0.00  0.00    +0.150 HD
ATOM      4  O   LYS A   1      10.132 -39.634   6.602  0.00  0.00    -0.274 OA
ENDROOT
BRANCH   1   5
ATOM      5  CA  LYS A   1       8.941 -37.620   6.211  0.00  0.00    +0.145 C 
BRANCH   5   6
ATOM      6  N   LYS A   1       8.200 -36.816   7.181  0.00  0.00    -0.238 NA
ATOM      7  H   LYS A   1       8.324 -35.784   7.211  0.00  0.00    +0.142 HD
ENDBRANCH   5   6
BRANCH   5   8
ATOM      8  CB  LYS A   1       9.654 -36.726   5.208  0.00  0.00    +0.026 C 
BRANCH   8   9
ATOM      9  CG  LYS A   1       8.730 -36.136   4.192  0.00  0.00    -0.000 C 
BRANCH   9  10
ATOM     10  CD  LYS A   1       9.418 -35.467   3.004  0.00  0.00    -0.024 C 
BRANCH  10  11
ATOM     11  CE  LYS A   1       8.696 -35.931   1.712  0.00  0.00    -0.086 C 
BRANCH  11  12
ATOM     12  NZ  LYS A   1       8.682 -34.862   0.670  0.00  0.00    +0.380 N 
ATOM     13  HZ1 LYS A   1       8.186 -34.026   1.039  0.00  0.00    -0.089 HD
ATOM     14  HZ2 LYS A   1       9.660 -34.606   0.424  0.00  0.00    -0.089 HD
ATOM     15  HZ3 LYS A   1       8.191 -35.212  -0.177  0.00  0.00    -0.089 HD
ENDBRANCH  11  12
ENDBRANCH  10  11
ENDBRANCH   9  10
ENDBRANCH   8   9
ENDBRANCH   5   8
ENDBRANCH   1   5
BRANCH   2  16
ATOM     16  CA  GLU A   2      11.471 -38.738   8.763  0.00  0.00    +0.137 C 
BRANCH  16  17
ATOM     17  C   GLU A   2      10.830 -39.884   9.526  0.00  0.00    +0.227 C 
ATOM     18  O   GLU A   2      11.291 -41.031   9.600  0.00  0.00    -0.286 OA
ENDBRANCH  16  17
BRANCH  16  19
ATOM     19  CB  GLU A   2      12.212 -37.735   9.696  0.00  0.00    +0.039 C 
BRANCH  19  20
ATOM     20  CG  GLU A   2      13.277 -38.380  10.551  0.00  0.00    +0.116 C 
BRANCH  20  21
ATOM     21  CD  GLU A   2      14.611 -38.623   9.845  0.00  0.00    +0.365 C 
ATOM     22  OE2 GLU A   2      15.545 -39.073  10.576  0.00  0.00    -0.246 OA
ATOM     23  OE1 GLU A   2      14.764 -38.386   8.634  0.00  0.00    -0.246 OA
ENDBRANCH  20  21
ENDBRANCH  19  20
ENDBRANCH  16  19
ENDBRANCH   2  16
TORSDOF 12
REMARK  Name = ../refined-set-2016/4c2v/4c2v_pocket.pdb
REMARK  259 active torsions:
REMARK  status: ('A' for Active; 'I' for Inactive)
REMARK    1  A    between atoms: _1  and  _3
REMARK    2  A    between atoms: _3  and  _4
REMARK    3  A    between atoms: _3  and  _6
REMARK    4  A    between atoms: _6  and  _7
REMARK    5  A    between atoms: _7  and  _8
REMARK    6  A    between atoms: _8  and  _9
REMARK    7  A    between atoms: _19  and  _20
REMARK    8  A    between atoms: _25  and  _27
REMARK    9  A    between atoms: _27  and  _28
REMARK   10  A    between atoms: _27  and  _30
REMARK   11  A    between atoms: _30  and  _31
REMARK   12  A    between atoms: _34  and  _36
REMARK   13  A    between atoms: _36  and  _37
REMARK   14  A    between atoms: _39  and  _41
REMARK   15  A    between atoms: _41  and  _42
REMARK   16  A    between atoms: _41  and  _44
REMARK   17  A    between atoms: _44  and  _45
REMARK   18  A    between atoms: _45  and  _46
REMARK   19  A    between atoms: _46  and  _47
REMARK   20  A    between atoms: _47  and  _48
REMARK   21  A    between atoms: _52  and  _54
REMARK   22  A    between atoms: _54  and  _55
REMARK   23  A    between atoms: _57  and  _59
REMARK   24  A    between atoms: _59  and  _60
REMARK   25  A    between atoms: _59  and  _62
REMARK   26  A    between atoms: _62  and  _63
REMARK   27  A    between atoms: _63  and  _64
REMARK   28  A    between atoms: _64  and  _65
REMARK   29  A    between atoms: _65  and  _66
REMARK   30  A    between atoms: _70  and  _72
REMARK   31  A    between atoms: _72  and  _73
REMARK   32  A    between atoms: _72  and  _75
REMARK   33  A    between atoms: _75  and  _76
REMARK   34  A    between atoms: _82  and  _84
REMARK   35  A    between atoms: _84  and  _85
REMARK   36  A    between atoms: _87  and  _89
REMARK   37  A    between atoms: _89  and  _90
REMARK   38  A    between atoms: _89  and  _92
REMARK   39  A    between atoms: _92  and  _93
REMARK   40  A    between atoms: _98  and  _100
REMARK   41  A    between atoms: _100  and  _101
REMARK   42  A    between atoms: _100  and  _103
REMARK   43  A    between atoms: _106  and  _108
REMARK   44  A    between atoms: _108  and  _109
REMARK   45  A    between atoms: _108  and  _111
REMARK   46  A    between atoms: _111  and  _112
REMARK   47  A    between atoms: _117  and  _118
REMARK   48  A    between atoms: _120  and  _122
REMARK   49  A    between atoms: _122  and  _123
REMARK   50  A    between atoms: _122  and  _125
REMARK   51  A    between atoms: _125  and  _126
REMARK   52  A    between atoms: _129  and  _131
REMARK   53  A    between atoms: _131  and  _132
REMARK   54  A    between atoms: _135  and  _137
REMARK   55  A    between atoms: _137  and  _138
REMARK   56  A    between atoms: _137  and  _140
REMARK   57  A    between atoms: _140  and  _141
REMARK   58  A    between atoms: _141  and  _142
REMARK   59  A    between atoms: _144  and  _146
REMARK   60  A    between atoms: _146  and  _147
REMARK   61  A    between atoms: _150  and  _152
REMARK   62  A    between atoms: _152  and  _153
REMARK   63  A    between atoms: _152  and  _155
REMARK   64  A    between atoms: _155  and  _156
REMARK   65  A    between atoms: _159  and  _161
REMARK   66  A    between atoms: _161  and  _162
REMARK   67  A    between atoms: _161  and  _164
REMARK   68  A    between atoms: _164  and  _165
REMARK   69  A    between atoms: _165  and  _166
REMARK   70  A    between atoms: _166  and  _167
REMARK   71  A    between atoms: _167  and  _168
REMARK   72  A    between atoms: _172  and  _174
REMARK   73  A    between atoms: _174  and  _175
REMARK   74  A    between atoms: _174  and  _177
REMARK   75  A    between atoms: _180  and  _182
REMARK   76  A    between atoms: _182  and  _183
REMARK   77  A    between atoms: _182  and  _185
REMARK   78  A    between atoms: _185  and  _186
REMARK   79  A    between atoms: _189  and  _191
REMARK   80  A    between atoms: _191  and  _192
REMARK   81  A    between atoms: _191  and  _194
REMARK   82  A    between atoms: _194  and  _195
REMARK   83  A    between atoms: _198  and  _200
REMARK   84  A    between atoms: _200  and  _201
REMARK   85  A    between atoms: _200  and  _203
REMARK   86  A    between atoms: _203  and  _204
REMARK   87  A    between atoms: _204  and  _205
REMARK   88  A    between atoms: _210  and  _212
REMARK   89  A    between atoms: _212  and  _213
REMARK   90  A    between atoms: _212  and  _215
REMARK   91  A    between atoms: _215  and  _216
REMARK   92  A    between atoms: _219  and  _221
REMARK   93  A    between atoms: _221  and  _222
REMARK   94  A    between atoms: _221  and  _224
REMARK   95  A    between atoms: _224  and  _225
REMARK   96  A    between atoms: _225  and  _226
REMARK   97  A    between atoms: _226  and  _227
REMARK   98  A    between atoms: _236  and  _238
REMARK   99  A    between atoms: _238  and  _239
REMARK  100  A    between atoms: _238  and  _241
REMARK  101  A    between atoms: _241  and  _242
REMARK  102  A    between atoms: _242  and  _243
REMARK  103  A    between atoms: _243  and  _244
REMARK  104  A    between atoms: _253  and  _255
REMARK  105  A    between atoms: _255  and  _256
REMARK  106  A    between atoms: _255  and  _258
REMARK  107  A    between atoms: _258  and  _259
REMARK  108  A    between atoms: _259  and  _260
REMARK  109  A    between atoms: _263  and  _265
REMARK  110  A    between atoms: _265  and  _266
REMARK  111  A    between atoms: _265  and  _268
REMARK  112  A    between atoms: _268  and  _269
REMARK  113  A    between atoms: _272  and  _274
REMARK  114  A    between atoms: _274  and  _275
REMARK  115  A    between atoms: _274  and  _277
REMARK  116  A    between atoms: _277  and  _278
REMARK  117  A    between atoms: _278  and  _279
REMARK  118  A    between atoms: _282  and  _284
REMARK  119  A    between atoms: _284  and  _285
REMARK  120  A    between atoms: _284  and  _287
REMARK  121  A    between atoms: _287  and  _288
REMARK  122  A    between atoms: _291  and  _293
REMARK  123  A    between atoms: _293  and  _294
REMARK  124  A    between atoms: _293  and  _296
REMARK  125  A    between atoms: _296  and  _297
REMARK  126  A    between atoms: _297  and  _298
REMARK  127  A    between atoms: _303  and  _305
REMARK  128  A    between atoms: _305  and  _306
REMARK  129  A    between atoms: _305  and  _308
REMARK  130  A    between atoms: _308  and  _309
REMARK  131  A    between atoms: _311  and  _313
REMARK  132  A    between atoms: _313  and  _314
REMARK  133  A    between atoms: _313  and  _316
REMARK  134  A    between atoms: _316  and  _317
REMARK  135  A    between atoms: _320  and  _322
REMARK  136  A    between atoms: _322  and  _323
REMARK  137  A    between atoms: _322  and  _325
REMARK  138  A    between atoms: _325  and  _326
REMARK  139  A    between atoms: _326  and  _327
REMARK  140  A    between atoms: _327  and  _328
REMARK  141  A    between atoms: _337  and  _339
REMARK  142  A    between atoms: _339  and  _340
REMARK  143  A    between atoms: _339  and  _342
REMARK  144  A    between atoms: _342  and  _343
REMARK  145  A    between atoms: _343  and  _344
REMARK  146  A    between atoms: _346  and  _348
REMARK  147  A    between atoms: _348  and  _349
REMARK  148  A    between atoms: _348  and  _351
REMARK  149  A    between atoms: _351  and  _352
REMARK  150  A    between atoms: _355  and  _357
REMARK  151  A    between atoms: _357  and  _358
REMARK  152  A    between atoms: _357  and  _360
REMARK  153  A    between atoms: _360  and  _361
REMARK  154  A    between atoms: _364  and  _366
REMARK  155  A    between atoms: _366  and  _367
REMARK  156  A    between atoms: _366  and  _369
REMARK  157  A    between atoms: _369  and  _370
REMARK  158  A    between atoms: _370  and  _371
REMARK  159  A    between atoms: _373  and  _375
REMARK  160  A    between atoms: _375  and  _376
REMARK  161  A    between atoms: _375  and  _378
REMARK  162  A    between atoms: _378  and  _379
REMARK  163  A    between atoms: _382  and  _384
REMARK  164  A    between atoms: _384  and  _385
REMARK  165  A    between atoms: _384  and  _387
REMARK  166  A    between atoms: _387  and  _388
REMARK  167  A    between atoms: _388  and  _389
REMARK  168  A    between atoms: _392  and  _394
REMARK  169  A    between atoms: _394  and  _395
REMARK  170  A    between atoms: _394  and  _397
REMARK  171  A    between atoms: _397  and  _398
REMARK  172  A    between atoms: _404  and  _406
REMARK  173  A    between atoms: _406  and  _407
REMARK  174  A    between atoms: _411  and  _412
REMARK  175  A    between atoms: _417  and  _419
REMARK  176  A    between atoms: _419  and  _420
REMARK  177  A    between atoms: _419  and  _422
REMARK  178  A    between atoms: _422  and  _423
REMARK  179  A    between atoms: _423  and  _424
REMARK  180  A    between atoms: _424  and  _425
REMARK  181  A    between atoms: _434  and  _436
REMARK  182  A    between atoms: _436  and  _437
REMARK  183  A    between atoms: _439  and  _441
REMARK  184  A    between atoms: _441  and  _442
REMARK  185  A    between atoms: _441  and  _444
REMARK  186  A    between atoms: _444  and  _445
REMARK  187  A    between atoms: _445  and  _446
REMARK  188  A    between atoms: _449  and  _451
REMARK  189  A    between atoms: _451  and  _452
REMARK  190  A    between atoms: _451  and  _454
REMARK  191  A    between atoms: _454  and  _455
REMARK  192  A    between atoms: _458  and  _460
REMARK  193  A    between atoms: _460  and  _461
REMARK  194  A    between atoms: _460  and  _463
REMARK  195  A    between atoms: _463  and  _464
REMARK  196  A    between atoms: _464  and  _465
REMARK  197  A    between atoms: _465  and  _466
REMARK  198  A    between atoms: _466  and  _467
REMARK  199  A    between atoms: _471  and  _473
REMARK  200  A    between atoms: _473  and  _474
REMARK  201  A    between atoms: _473  and  _476
REMARK  202  A    between atoms: _476  and  _477
REMARK  203  A    between atoms: _477  and  _478
REMARK  204  A    between atoms: _481  and  _483
REMARK  205  A    between atoms: _483  and  _484
REMARK  206  A    between atoms: _483  and  _486
REMARK  207  A    between atoms: _486  and  _487
REMARK  208  A    between atoms: _487  and  _488
REMARK  209  A    between atoms: _488  and  _489
REMARK  210  A    between atoms: _489  and  _490
REMARK  211  A    between atoms: _494  and  _496
REMARK  212  A    between atoms: _496  and  _497
REMARK  213  A    between atoms: _496  and  _499
REMARK  214  A    between atoms: _499  and  _500
REMARK  215  A    between atoms: _500  and  _501
REMARK  216  A    between atoms: _504  and  _506
REMARK  217  A    between atoms: _506  and  _507
REMARK  218  A    between atoms: _506  and  _509
REMARK  219  A    between atoms: _509  and  _510
REMARK  220  A    between atoms: _515  and  _517
REMARK  221  A    between atoms: _517  and  _518
REMARK  222  A    between atoms: _517  and  _520
REMARK  223  A    between atoms: _520  and  _521
REMARK  224  A    between atoms: _524  and  _526
REMARK  225  A    between atoms: _526  and  _527
REMARK  226  A    between atoms: _526  and  _529
REMARK  227  A    between atoms: _529  and  _530
REMARK  228  A    between atoms: _533  and  _535
REMARK  229  A    between atoms: _535  and  _536
REMARK  230  A    between atoms: _535  and  _538
REMARK  231  A    between atoms: _538  and  _539
REMARK  232  A    between atoms: _539  and  _540
REMARK  233  A    between atoms: _542  and  _544
REMARK  234  A    between atoms: _544  and  _545
REMARK  235  A    between atoms: _544  and  _547
REMARK  236  A    between atoms: _547  and  _548
REMARK  237  A    between atoms: _548  and  _549
REMARK  238  A    between atoms: _549  and  _550
REMARK  239  A    between atoms: _550  and  _551
REMARK  240  A    between atoms: _555  and  _557
REMARK  241  A    between atoms: _557  and  _558
REMARK  242  A    between atoms: _557  and  _560
REMARK  243  A    between atoms: _560  and  _561
REMARK  244  A    between atoms: _564  and  _566
REMARK  245  A    between atoms: _566  and  _567
REMARK  246  A    between atoms: _570  and  _572
REMARK  247  A    between atoms: _572  and  _573
REMARK  248  A    between atoms: _572  and  _575
REMARK  249  A    between atoms: _575  and  _576
REMARK  250  A    between atoms: _579  and  _581
REMARK  251  A    between atoms: _581  and  _582
REMARK  252  A    between atoms: _581  and  _584
REMARK  253  A    between atoms: _584  and  _585
REMARK  254  A    between atoms: _591  and  _593
REMARK  255  A    between atoms: _593  and  _594
REMARK  256  A    between atoms: _596  and  _598
REMARK  257  A    between atoms: _598  and  _599
REMARK  258  A    between atoms: _598  and  _601
REMARK  259  A    between atoms: _601  and  _602
REMARK                            x       y       z     vdW  Elec       q    Type
REMARK                         _______ _______ _______ _____ _____    ______ ____
ROOT
ATOM      1  CG  LYS A   1      13.637 -42.936   6.026  0.00  0.00    -0.000 C 
ENDROOT
BRANCH   1   2
ATOM      2  CB  LYS A   1      12.212 -42.343   6.284  0.00  0.00    +0.025 C 
BRANCH   2   3
ATOM      3  CA  LYS A   1      11.106 -43.310   6.572  0.00  0.00    +0.133 C 
BRANCH   3   4
ATOM      4  N   LYS A   1       9.920 -42.546   7.004  0.00  0.00    -0.239 NA
ATOM      5  H   LYS A   1       9.997 -41.526   7.192  0.00  0.00    +0.142 HD
ENDBRANCH   3   4
BRANCH   3   6
ATOM      6  C   LYS A   1      11.577 -44.325   7.593  0.00  0.00    +0.224 C 
ATOM      7  O   LYS A   1      12.039 -45.452   7.255  0.00  0.00    -0.287 OA
ENDBRANCH   3   6
ENDBRANCH   2   3
ENDBRANCH   1   2
BRANCH   1   8
ATOM      8  CD  LYS A   1      14.545 -41.734   5.718  0.00  0.00    -0.024 C 
BRANCH   8   9
ATOM      9  CE  LYS A   1      16.000 -42.196   5.628  0.00  0.00    -0.086 C 
BRANCH   9  10
ATOM     10  NZ  LYS A   1      16.823 -41.125   4.986  0.00  0.00    +0.380 N 
ATOM     11  HZ1 LYS A   1      16.768 -40.258   5.558  0.00  0.00    -0.089 HD
ATOM     12  HZ2 LYS A   1      17.812 -41.440   4.925  0.00  0.00    -0.089 HD
ATOM     13  HZ3 LYS A   1      16.459 -40.935   4.031  0.00  0.00    -0.089 HD
ENDBRANCH   9  10
ENDBRANCH   8   9
ENDBRANCH   1   8
TORSDOF 7
REMARK  Name = ../refined-set-2016/4c2v/4c2v_pocket.pdb
REMARK  259 active torsions:
REMARK  status: ('A' for Active; 'I' for Inactive)
REMARK    1  A    between atoms: _1  and  _3
REMARK    2  A    between atoms: _3  and  _4
REMARK    3  A    between atoms: _3  and  _6
REMARK    4  A    between atoms: _6  and  _7
REMARK    5  A    between atoms: _7  and  _8
REMARK    6  A    between atoms: _8  and  _9
REMARK    7  A    between atoms: _19  and  _20
REMARK    8  A    between atoms: _25  and  _27
REMARK    9  A    between atoms: _27  and  _28
REMARK   10  A    between atoms: _27  and  _30
REMARK   11  A    between atoms: _30  and  _31
REMARK   12  A    between atoms: _34  and  _36
REMARK   13  A    between atoms: _36  and  _37
REMARK   14  A    between atoms: _39  and  _41
REMARK   15  A    between atoms: _41  and  _42
REMARK   16  A    between atoms: _41  and  _44
REMARK   17  A    between atoms: _44  and  _45
REMARK   18  A    between atoms: _45  and  _46
REMARK   19  A    between atoms: _46  and  _47
REMARK   20  A    between atoms: _47  and  _48
REMARK   21  A    between atoms: _52  and  _54
REMARK   22  A    between atoms: _54  and  _55
REMARK   23  A    between atoms: _57  and  _59
REMARK   24  A    between atoms: _59  and  _60
REMARK   25  A    between atoms: _59  and  _62
REMARK   26  A    between atoms: _62  and  _63
REMARK   27  A    between atoms: _63  and  _64
REMARK   28  A    between atoms: _64  and  _65
REMARK   29  A    between atoms: _65  and  _66
REMARK   30  A    between atoms: _70  and  _72
REMARK   31  A    between atoms: _72  and  _73
REMARK   32  A    between atoms: _72  and  _75
REMARK   33  A    between atoms: _75  and  _76
REMARK   34  A    between atoms: _82  and  _84
REMARK   35  A    between atoms: _84  and  _85
REMARK   36  A    between atoms: _87  and  _89
REMARK   37  A    between atoms: _89  and  _90
REMARK   38  A    between atoms: _89  and  _92
REMARK   39  A    between atoms: _92  and  _93
REMARK   40  A    between atoms: _98  and  _100
REMARK   41  A    between atoms: _100  and  _101
REMARK   42  A    between atoms: _100  and  _103
REMARK   43  A    between atoms: _106  and  _108
REMARK   44  A    between atoms: _108  and  _109
REMARK   45  A    between atoms: _108  and  _111
REMARK   46  A    between atoms: _111  and  _112
REMARK   47  A    between atoms: _117  and  _118
REMARK   48  A    between atoms: _120  and  _122
REMARK   49  A    between atoms: _122  and  _123
REMARK   50  A    between atoms: _122  and  _125
REMARK   51  A    between atoms: _125  and  _126
REMARK   52  A    between atoms: _129  and  _131
REMARK   53  A    between atoms: _131  and  _132
REMARK   54  A    between atoms: _135  and  _137
REMARK   55  A    between atoms: _137  and  _138
REMARK   56  A    between atoms: _137  and  _140
REMARK   57  A    between atoms: _140  and  _141
REMARK   58  A    between atoms: _141  and  _142
REMARK   59  A    between atoms: _144  and  _146
REMARK   60  A    between atoms: _146  and  _147
REMARK   61  A    between atoms: _150  and  _152
REMARK   62  A    between atoms: _152  and  _153
REMARK   63  A    between atoms: _152  and  _155
REMARK   64  A    between atoms: _155  and  _156
REMARK   65  A    between atoms: _159  and  _161
REMARK   66  A    between atoms: _161  and  _162
REMARK   67  A    between atoms: _161  and  _164
REMARK   68  A    between atoms: _164  and  _165
REMARK   69  A    between atoms: _165  and  _166
REMARK   70  A    between atoms: _166  and  _167
REMARK   71  A    between atoms: _167  and  _168
REMARK   72  A    between atoms: _172  and  _174
REMARK   73  A    between atoms: _174  and  _175
REMARK   74  A    between atoms: _174  and  _177
REMARK   75  A    between atoms: _180  and  _182
REMARK   76  A    between atoms: _182  and  _183
REMARK   77  A    between atoms: _182  and  _185
REMARK   78  A    between atoms: _185  and  _186
REMARK   79  A    between atoms: _189  and  _191
REMARK   80  A    between atoms: _191  and  _192
REMARK   81  A    between atoms: _191  and  _194
REMARK   82  A    between atoms: _194  and  _195
REMARK   83  A    between atoms: _198  and  _200
REMARK   84  A    between atoms: _200  and  _201
REMARK   85  A    between atoms: _200  and  _203
REMARK   86  A    between atoms: _203  and  _204
REMARK   87  A    between atoms: _204  and  _205
REMARK   88  A    between atoms: _210  and  _212
REMARK   89  A    between atoms: _212  and  _213
REMARK   90  A    between atoms: _212  and  _215
REMARK   91  A    between atoms: _215  and  _216
REMARK   92  A    between atoms: _219  and  _221
REMARK   93  A    between atoms: _221  and  _222
REMARK   94  A    between atoms: _221  and  _224
REMARK   95  A    between atoms: _224  and  _225
REMARK   96  A    between atoms: _225  and  _226
REMARK   97  A    between atoms: _226  and  _227
REMARK   98  A    between atoms: _236  and  _238
REMARK   99  A    between atoms: _238  and  _239
REMARK  100  A    between atoms: _238  and  _241
REMARK  101  A    between atoms: _241  and  _242
REMARK  102  A    between atoms: _242  and  _243
REMARK  103  A    between atoms: _243  and  _244
REMARK  104  A    between atoms: _253  and  _255
REMARK  105  A    between atoms: _255  and  _256
REMARK  106  A    between atoms: _255  and  _258
REMARK  107  A    between atoms: _258  and  _259
REMARK  108  A    between atoms: _259  and  _260
REMARK  109  A    between atoms: _263  and  _265
REMARK  110  A    between atoms: _265  and  _266
REMARK  111  A    between atoms: _265  and  _268
REMARK  112  A    between atoms: _268  and  _269
REMARK  113  A    between atoms: _272  and  _274
REMARK  114  A    between atoms: _274  and  _275
REMARK  115  A    between atoms: _274  and  _277
REMARK  116  A    between atoms: _277  and  _278
REMARK  117  A    between atoms: _278  and  _279
REMARK  118  A    between atoms: _282  and  _284
REMARK  119  A    between atoms: _284  and  _285
REMARK  120  A    between atoms: _284  and  _287
REMARK  121  A    between atoms: _287  and  _288
REMARK  122  A    between atoms: _291  and  _293
REMARK  123  A    between atoms: _293  and  _294
REMARK  124  A    between atoms: _293  and  _296
REMARK  125  A    between atoms: _296  and  _297
REMARK  126  A    between atoms: _297  and  _298
REMARK  127  A    between atoms: _303  and  _305
REMARK  128  A    between atoms: _305  and  _306
REMARK  129  A    between atoms: _305  and  _308
REMARK  130  A    between atoms: _308  and  _309
REMARK  131  A    between atoms: _311  and  _313
REMARK  132  A    between atoms: _313  and  _314
REMARK  133  A    between atoms: _313  and  _316
REMARK  134  A    between atoms: _316  and  _317
REMARK  135  A    between atoms: _320  and  _322
REMARK  136  A    between atoms: _322  and  _323
REMARK  137  A    between atoms: _322  and  _325
REMARK  138  A    between atoms: _325  and  _326
REMARK  139  A    between atoms: _326  and  _327
REMARK  140  A    between atoms: _327  and  _328
REMARK  141  A    between atoms: _337  and  _339
REMARK  142  A    between atoms: _339  and  _340
REMARK  143  A    between atoms: _339  and  _342
REMARK  144  A    between atoms: _342  and  _343
REMARK  145  A    between atoms: _343  and  _344
REMARK  146  A    between atoms: _346  and  _348
REMARK  147  A    between atoms: _348  and  _349
REMARK  148  A    between atoms: _348  and  _351
REMARK  149  A    between atoms: _351  and  _352
REMARK  150  A    between atoms: _355  and  _357
REMARK  151  A    between atoms: _357  and  _358
REMARK  152  A    between atoms: _357  and  _360
REMARK  153  A    between atoms: _360  and  _361
REMARK  154  A    between atoms: _364  and  _366
REMARK  155  A    between atoms: _366  and  _367
REMARK  156  A    between atoms: _366  and  _369
REMARK  157  A    between atoms: _369  and  _370
REMARK  158  A    between atoms: _370  and  _371
REMARK  159  A    between atoms: _373  and  _375
REMARK  160  A    between atoms: _375  and  _376
REMARK  161  A    between atoms: _375  and  _378
REMARK  162  A    between atoms: _378  and  _379
REMARK  163  A    between atoms: _382  and  _384
REMARK  164  A    between atoms: _384  and  _385
REMARK  165  A    between atoms: _384  and  _387
REMARK  166  A    between atoms: _387  and  _388
REMARK  167  A    between atoms: _388  and  _389
REMARK  168  A    between atoms: _392  and  _394
REMARK  169  A    between atoms: _394  and  _395
REMARK  170  A    between atoms: _394  and  _397
REMARK  171  A    between atoms: _397  and  _398
REMARK  172  A    between atoms: _404  and  _406
REMARK  173  A    between atoms: _406  and  _407
REMARK  174  A    between atoms: _411  and  _412
REMARK  175  A    between atoms: _417  and  _419
REMARK  176  A    between atoms: _419  and  _420
REMARK  177  A    between atoms: _419  and  _422
REMARK  178  A    between atoms: _422  and  _423
REMARK  179  A    between atoms: _423  and  _424
REMARK  180  A    between atoms: _424  and  _425
REMARK  181  A    between atoms: _434  and  _436
REMARK  182  A    between atoms: _436  and  _437
REMARK  183  A    between atoms: _439  and  _441
REMARK  184  A    between atoms: _441  and  _442
REMARK  185  A    between atoms: _441  and  _444
REMARK  186  A    between atoms: _444  and  _445
REMARK  187  A    between atoms: _445  and  _446
REMARK  188  A    between atoms: _449  and  _451
REMARK  189  A    between atoms: _451  and  _452
REMARK  190  A    between atoms: _451  and  _454
REMARK  191  A    between atoms: _454  and  _455
REMARK  192  A    between atoms: _458  and  _460
REMARK  193  A    between atoms: _460  and  _461
REMARK  194  A    between atoms: _460  and  _463
REMARK  195  A    between atoms: _463  and  _464
REMARK  196  A    between atoms: _464  and  _465
REMARK  197  A    between atoms: _465  and  _466
REMARK  198  A    between atoms: _466  and  _467
REMARK  199  A    between atoms: _471  and  _473
REMARK  200  A    between atoms: _473  and  _474
REMARK  201  A    between atoms: _473  and  _476
REMARK  202  A    between atoms: _476  and  _477
REMARK  203  A    between atoms: _477  and  _478
REMARK  204  A    between atoms: _481  and  _483
REMARK  205  A    between atoms: _483  and  _484
REMARK  206  A    between atoms: _483  and  _486
REMARK  207  A    between atoms: _486  and  _487
REMARK  208  A    between atoms: _487  and  _488
REMARK  209  A    between atoms: _488  and  _489
REMARK  210  A    between atoms: _489  and  _490
REMARK  211  A    between atoms: _494  and  _496
REMARK  212  A    between atoms: _496  and  _497
REMARK  213  A    between atoms: _496  and  _499
REMARK  214  A    between atoms: _499  and  _500
REMARK  215  A    between atoms: _500  and  _501
REMARK  216  A    between atoms: _504  and  _506
REMARK  217  A    between atoms: _506  and  _507
REMARK  218  A    between atoms: _506  and  _509
REMARK  219  A    between atoms: _509  and  _510
REMARK  220  A    between atoms: _515  and  _517
REMARK  221  A    between atoms: _517  and  _518
REMARK  222  A    between atoms: _517  and  _520
REMARK  223  A    between atoms: _520  and  _521
REMARK  224  A    between atoms: _524  and  _526
REMARK  225  A    between atoms: _526  and  _527
REMARK  226  A    between atoms: _526  and  _529
REMARK  227  A    between atoms: _529  and  _530
REMARK  228  A    between atoms: _533  and  _535
REMARK  229  A    between atoms: _535  and  _536
REMARK  230  A    between atoms: _535  and  _538
REMARK  231  A    between atoms: _538  and  _539
REMARK  232  A    between atoms: _539  and  _540
REMARK  233  A    between atoms: _542  and  _544
REMARK  234  A    between atoms: _544  and  _545
REMARK  235  A    between atoms: _544  and  _547
REMARK  236  A    between atoms: _547  and  _548
REMARK  237  A    between atoms: _548  and  _549
REMARK  238  A    between atoms: _549  and  _550
REMARK  239  A    between atoms: _550  and  _551
REMARK  240  A    between atoms: _555  and  _557
REMARK  241  A    between atoms: _557  and  _558
REMARK  242  A    between atoms: _557  and  _560
REMARK  243  A    between atoms: _560  and  _561
REMARK  244  A    between atoms: _564  and  _566
REMARK  245  A    between atoms: _566  and  _567
REMARK  246  A    between atoms: _570  and  _572
REMARK  247  A    between atoms: _572  and  _573
REMARK  248  A    between atoms: _572  and  _575
REMARK  249  A    between atoms: _575  and  _576
REMARK  250  A    between atoms: _579  and  _581
REMARK  251  A    between atoms: _581  and  _582
REMARK  252  A    between atoms: _581  and  _584
REMARK  253  A    between atoms: _584  and  _585
REMARK  254  A    between atoms: _591  and  _593
REMARK  255  A    between atoms: _593  and  _594
REMARK  256  A    between atoms: _596  and  _598
REMARK  257  A    between atoms: _598  and  _599
REMARK  258  A    between atoms: _598  and  _601
REMARK  259  A    between atoms: _601  and  _602
REMARK                            x       y       z     vdW  Elec       q    Type
REMARK                         _______ _______ _______ _____ _____    ______ ____
ROOT
ATOM      1  CA  LEU A   3       6.796 -29.934  12.612  0.00  0.00    +0.149 C 
ENDROOT
BRANCH   1   4
ATOM      2  C   ASN A   2       4.552 -29.073  12.017  0.00  0.00    +0.241 C 
ATOM      3  O   ASN A   2       4.726 -27.915  12.468  0.00  0.00    -0.273 OA
ATOM      4  N   LEU A   3       5.484 -30.030  11.991  0.00  0.00    -0.297 N 
ATOM      5  H   LEU A   3       5.254 -30.911  11.488  0.00  0.00    +0.150 HD
BRANCH   2   6
ATOM      6  CA  ASN A   2       3.214 -29.436  11.376  0.00  0.00    +0.158 C 
BRANCH   6   8
ATOM      7  C   GLU A   1       3.268 -31.377   9.838  0.00  0.00    +0.238 C 
ATOM      8  N   ASN A   2       3.088 -30.870  11.047  0.00  0.00    -0.297 N 
ATOM      9  H   ASN A   2       2.841 -31.525  11.816  0.00  0.00    +0.150 HD
ATOM     10  O   GLU A   1       3.606 -30.615   8.864  0.00  0.00    -0.274 OA
BRANCH   7  11
ATOM     11  CA  GLU A   1       3.112 -32.835   9.648  0.00  0.00    +0.145 C 
BRANCH  11  12
ATOM     12  N   GLU A   1       3.116 -33.604  10.861  0.00  0.00    -0.238 NA
ATOM     13  H   GLU A   1       2.258 -34.129  11.127  0.00  0.00    +0.142 HD
ENDBRANCH  11  12
BRANCH  11  14
ATOM     14  CB  GLU A   1       1.804 -33.080   8.860  0.00  0.00    +0.038 C 
BRANCH  14  15
ATOM     15  CG  GLU A   1       1.601 -34.458   8.278  0.00  0.00    +0.116 C 
BRANCH  15  16
ATOM     16  CD  GLU A   1       1.325 -35.627   9.223  0.00  0.00    +0.365 C 
ATOM     17  OE2 GLU A   1       1.167 -35.463  10.442  0.00  0.00    -0.246 OA
ATOM     18  OE1 GLU A   1       1.301 -36.809   8.694  0.00  0.00    -0.246 OA
ENDBRANCH  15  16
ENDBRANCH  14  15
ENDBRANCH  11  14
ENDBRANCH   7  11
ENDBRANCH   6   8
BRANCH   6  19
ATOM     19  CB  ASN A   2       2.053 -28.908  12.203  0.00  0.00    +0.114 C 
BRANCH  19  20
ATOM     20  CG  ASN A   2       0.779 -28.820  11.346  0.00  0.00    +0.222 C 
ATOM     21  ND2 ASN A   2      -0.348 -28.862  11.991  0.00  0.00    -0.329 N 
ATOM     22 HD21 ASN A   2      -0.351 -28.906  13.030  0.00  0.00    +0.145 HD
ATOM     23 HD22 ASN A   2      -1.247 -28.851  11.468  0.00  0.00    +0.145 HD
ATOM     24  OD1 ASN A   2       0.848 -28.766  10.103  0.00  0.00    -0.275 OA
ENDBRANCH  19  20
ENDBRANCH   6  19
ENDBRANCH   2   6
ENDBRANCH   1   4
BRANCH   1  25
ATOM     25  C   LEU A   3       7.896 -30.109  11.551  0.00  0.00    +0.241 C 
ATOM     26  N   LEU A   4       8.947 -29.292  11.708  0.00  0.00    -0.297 N 
ATOM     27  H   LEU A   4       8.893 -28.583  12.467  0.00  0.00    +0.150 HD
ATOM     28  O   LEU A   3       7.834 -31.001  10.717  0.00  0.00    -0.273 OA
BRANCH  26  29
ATOM     29  CA  LEU A   4      10.164 -29.317  10.897  0.00  0.00    +0.149 C 
BRANCH  29  30
ATOM     30  C   LEU A   4      11.328 -29.603  11.821  0.00  0.00    +0.241 C 
ATOM     31  O   LEU A   4      11.201 -29.628  13.020  0.00  0.00    -0.273 OA
ATOM     32  N   MET A   5      12.476 -29.836  11.215  0.00  0.00    -0.298 N 
ATOM     33  H   MET A   5      12.507 -29.775  10.177  0.00  0.00    +0.150 HD
BRANCH  32  34
ATOM     34  CA  MET A   5      13.721 -30.180  11.935  0.00  0.00    +0.138 C 
BRANCH  34  35
ATOM     35  C   MET A   5      14.868 -29.255  11.520  0.00  0.00    +0.227 C 
ATOM     36  O   MET A   5      15.139 -29.080  10.349  0.00  0.00    -0.286 OA
ENDBRANCH  34  35
BRANCH  34  37
ATOM     37  CB  MET A   5      14.060 -31.640  11.666  0.00  0.00    +0.039 C 
BRANCH  37  38
ATOM     38  CG  MET A   5      13.065 -32.615  12.277  0.00  0.00    +0.060 C 
BRANCH  38  39
ATOM     39  SD  MET A   5      13.423 -34.327  11.886  0.00  0.00    -0.139 S 
ATOM     40  CE  MET A   5      13.474 -34.363  10.132  0.00  0.00    +0.069 C 
ENDBRANCH  38  39
ENDBRANCH  37  38
ENDBRANCH  34  37
ENDBRANCH  32  34
ENDBRANCH  29  30
BRANCH  29  41
ATOM     41  CB  LEU A   4      10.343 -28.003  10.121  0.00  0.00    +0.029 C 
BRANCH  41  42
ATOM     42  CG  LEU A   4       9.278 -27.630   9.158  0.00  0.00    +0.002 C 
ATOM     43  CD2 LEU A   4       9.576 -26.272   8.592  0.00  0.00    +0.000 C 
ATOM     44  CD1 LEU A   4       9.084 -28.587   8.030  0.00  0.00    +0.000 C 
ENDBRANCH  41  42
ENDBRANCH  29  41
ENDBRANCH  26  29
ENDBRANCH   1  25
BRANCH   1  45
ATOM     45  CB  LEU A   3       6.950 -30.992  13.670  0.00  0.00    +0.029 C 
BRANCH  45  46
ATOM     46  CG  LEU A   3       5.832 -31.055  14.738  0.00  0.00    +0.002 C 
ATOM     47  CD2 LEU A   3       6.009 -32.170  15.699  0.00  0.00    +0.000 C 
ATOM     48  CD1 LEU A   3       5.820 -29.778  15.562  0.00  0.00    +0.000 C 
ENDBRANCH  45  46
ENDBRANCH   1  45
TORSDOF 22
REMARK  Name = ../refined-set-2016/4c2v/4c2v_pocket.pdb
REMARK  259 active torsions:
REMARK  status: ('A' for Active; 'I' for Inactive)
REMARK    1  A    between atoms: _1  and  _3
REMARK    2  A    between atoms: _3  and  _4
REMARK    3  A    between atoms: _3  and  _6
REMARK    4  A    between atoms: _6  and  _7
REMARK    5  A    between atoms: _7  and  _8
REMARK    6  A    between atoms: _8  and  _9
REMARK    7  A    between atoms: _19  and  _20
REMARK    8  A    between atoms: _25  and  _27
REMARK    9  A    between atoms: _27  and  _28
REMARK   10  A    between atoms: _27  and  _30
REMARK   11  A    between atoms: _30  and  _31
REMARK   12  A    between atoms: _34  and  _36
REMARK   13  A    between atoms: _36  and  _37
REMARK   14  A    between atoms: _39  and  _41
REMARK   15  A    between atoms: _41  and  _42
REMARK   16  A    between atoms: _41  and  _44
REMARK   17  A    between atoms: _44  and  _45
REMARK   18  A    between atoms: _45  and  _46
REMARK   19  A    between atoms: _46  and  _47
REMARK   20  A    between atoms: _47  and  _48
REMARK   21  A    between atoms: _52  and  _54
REMARK   22  A    between atoms: _54  and  _55
REMARK   23  A    between atoms: _57  and  _59
REMARK   24  A    between atoms: _59  and  _60
REMARK   25  A    between atoms: _59  and  _62
REMARK   26  A    between atoms: _62  and  _63
REMARK   27  A    between atoms: _63  and  _64
REMARK   28  A    between atoms: _64  and  _65
REMARK   29  A    between atoms: _65  and  _66
REMARK   30  A    between atoms: _70  and  _72
REMARK   31  A    between atoms: _72  and  _73
REMARK   32  A    between atoms: _72  and  _75
REMARK   33  A    between atoms: _75  and  _76
REMARK   34  A    between atoms: _82  and  _84
REMARK   35  A    between atoms: _84  and  _85
REMARK   36  A    between atoms: _87  and  _89
REMARK   37  A    between atoms: _89  and  _90
REMARK   38  A    between atoms: _89  and  _92
REMARK   39  A    between atoms: _92  and  _93
REMARK   40  A    between atoms: _98  and  _100
REMARK   41  A    between atoms: _100  and  _101
REMARK   42  A    between atoms: _100  and  _103
REMARK   43  A    between atoms: _106  and  _108
REMARK   44  A    between atoms: _108  and  _109
REMARK   45  A    between atoms: _108  and  _111
REMARK   46  A    between atoms: _111  and  _112
REMARK   47  A    between atoms: _117  and  _118
REMARK   48  A    between atoms: _120  and  _122
REMARK   49  A    between atoms: _122  and  _123
REMARK   50  A    between atoms: _122  and  _125
REMARK   51  A    between atoms: _125  and  _126
REMARK   52  A    between atoms: _129  and  _131
REMARK   53  A    between atoms: _131  and  _132
REMARK   54  A    between atoms: _135  and  _137
REMARK   55  A    between atoms: _137  and  _138
REMARK   56  A    between atoms: _137  and  _140
REMARK   57  A    between atoms: _140  and  _141
REMARK   58  A    between atoms: _141  and  _142
REMARK   59  A    between atoms: _144  and  _146
REMARK   60  A    between atoms: _146  and  _147
REMARK   61  A    between atoms: _150  and  _152
REMARK   62  A    between atoms: _152  and  _153
REMARK   63  A    between atoms: _152  and  _155
REMARK   64  A    between atoms: _155  and  _156
REMARK   65  A    between atoms: _159  and  _161
REMARK   66  A    between atoms: _161  and  _162
REMARK   67  A    between atoms: _161  and  _164
REMARK   68  A    between atoms: _164  and  _165
REMARK   69  A    between atoms: _165  and  _166
REMARK   70  A    between atoms: _166  and  _167
REMARK   71  A    between atoms: _167  and  _168
REMARK   72  A    between atoms: _172  and  _174
REMARK   73  A    between atoms: _174  and  _175
REMARK   74  A    between atoms: _174  and  _177
REMARK   75  A    between atoms: _180  and  _182
REMARK   76  A    between atoms: _182  and  _183
REMARK   77  A    between atoms: _182  and  _185
REMARK   78  A    between atoms: _185  and  _186
REMARK   79  A    between atoms: _189  and  _191
REMARK   80  A    between atoms: _191  and  _192
REMARK   81  A    between atoms: _191  and  _194
REMARK   82  A    between atoms: _194  and  _195
REMARK   83  A    between atoms: _198  and  _200
REMARK   84  A    between atoms: _200  and  _201
REMARK   85  A    between atoms: _200  and  _203
REMARK   86  A    between atoms: _203  and  _204
REMARK   87  A    between atoms: _204  and  _205
REMARK   88  A    between atoms: _210  and  _212
REMARK   89  A    between atoms: _212  and  _213
REMARK   90  A    between atoms: _212  and  _215
REMARK   91  A    between atoms: _215  and  _216
REMARK   92  A    between atoms: _219  and  _221
REMARK   93  A    between atoms: _221  and  _222
REMARK   94  A    between atoms: _221  and  _224
REMARK   95  A    between atoms: _224  and  _225
REMARK   96  A    between atoms: _225  and  _226
REMARK   97  A    between atoms: _226  and  _227
REMARK   98  A    between atoms: _236  and  _238
REMARK   99  A    between atoms: _238  and  _239
REMARK  100  A    between atoms: _238  and  _241
REMARK  101  A    between atoms: _241  and  _242
REMARK  102  A    between atoms: _242  and  _243
REMARK  103  A    between atoms: _243  and  _244
REMARK  104  A    between atoms: _253  and  _255
REMARK  105  A    between atoms: _255  and  _256
REMARK  106  A    between atoms: _255  and  _258
REMARK  107  A    between atoms: _258  and  _259
REMARK  108  A    between atoms: _259  and  _260
REMARK  109  A    between atoms: _263  and  _265
REMARK  110  A    between atoms: _265  and  _266
REMARK  111  A    between atoms: _265  and  _268
REMARK  112  A    between atoms: _268  and  _269
REMARK  113  A    between atoms: _272  and  _274
REMARK  114  A    between atoms: _274  and  _275
REMARK  115  A    between atoms: _274  and  _277
REMARK  116  A    between atoms: _277  and  _278
REMARK  117  A    between atoms: _278  and  _279
REMARK  118  A    between atoms: _282  and  _284
REMARK  119  A    between atoms: _284  and  _285
REMARK  120  A    between atoms: _284  and  _287
REMARK  121  A    between atoms: _287  and  _288
REMARK  122  A    between atoms: _291  and  _293
REMARK  123  A    between atoms: _293  and  _294
REMARK  124  A    between atoms: _293  and  _296
REMARK  125  A    between atoms: _296  and  _297
REMARK  126  A    between atoms: _297  and  _298
REMARK  127  A    between atoms: _303  and  _305
REMARK  128  A    between atoms: _305  and  _306
REMARK  129  A    between atoms: _305  and  _308
REMARK  130  A    between atoms: _308  and  _309
REMARK  131  A    between atoms: _311  and  _313
REMARK  132  A    between atoms: _313  and  _314
REMARK  133  A    between atoms: _313  and  _316
REMARK  134  A    between atoms: _316  and  _317
REMARK  135  A    between atoms: _320  and  _322
REMARK  136  A    between atoms: _322  and  _323
REMARK  137  A    between atoms: _322  and  _325
REMARK  138  A    between atoms: _325  and  _326
REMARK  139  A    between atoms: _326  and  _327
REMARK  140  A    between atoms: _327  and  _328
REMARK  141  A    between atoms: _337  and  _339
REMARK  142  A    between atoms: _339  and  _340
REMARK  143  A    between atoms: _339  and  _342
REMARK  144  A    between atoms: _342  and  _343
REMARK  145  A    between atoms: _343  and  _344
REMARK  146  A    between atoms: _346  and  _348
REMARK  147  A    between atoms: _348  and  _349
REMARK  148  A    between atoms: _348  and  _351
REMARK  149  A    between atoms: _351  and  _352
REMARK  150  A    between atoms: _355  and  _357
REMARK  151  A    between atoms: _357  and  _358
REMARK  152  A    between atoms: _357  and  _360
REMARK  153  A    between atoms: _360  and  _361
REMARK  154  A    between atoms: _364  and  _366
REMARK  155  A    between atoms: _366  and  _367
REMARK  156  A    between atoms: _366  and  _369
REMARK  157  A    between atoms: _369  and  _370
REMARK  158  A    between atoms: _370  and  _371
REMARK  159  A    between atoms: _373  and  _375
REMARK  160  A    between atoms: _375  and  _376
REMARK  161  A    between atoms: _375  and  _378
REMARK  162  A    between atoms: _378  and  _379
REMARK  163  A    between atoms: _382  and  _384
REMARK  164  A    between atoms: _384  and  _385
REMARK  165  A    between atoms: _384  and  _387
REMARK  166  A    between atoms: _387  and  _388
REMARK  167  A    between atoms: _388  and  _389
REMARK  168  A    between atoms: _392  and  _394
REMARK  169  A    between atoms: _394  and  _395
REMARK  170  A    between atoms: _394  and  _397
REMARK  171  A    between atoms: _397  and  _398
REMARK  172  A    between atoms: _404  and  _406
REMARK  173  A    between atoms: _406  and  _407
REMARK  174  A    between atoms: _411  and  _412
REMARK  175  A    between atoms: _417  and  _419
REMARK  176  A    between atoms: _419  and  _420
REMARK  177  A    between atoms: _419  and  _422
REMARK  178  A    between atoms: _422  and  _423
REMARK  179  A    between atoms: _423  and  _424
REMARK  180  A    between atoms: _424  and  _425
REMARK  181  A    between atoms: _434  and  _436
REMARK  182  A    between atoms: _436  and  _437
REMARK  183  A    between atoms: _439  and  _441
REMARK  184  A    between atoms: _441  and  _442
REMARK  185  A    between atoms: _441  and  _444
REMARK  186  A    between atoms: _444  and  _445
REMARK  187  A    between atoms: _445  and  _446
REMARK  188  A    between atoms: _449  and  _451
REMARK  189  A    between atoms: _451  and  _452
REMARK  190  A    between atoms: _451  and  _454
REMARK  191  A    between atoms: _454  and  _455
REMARK  192  A    between atoms: _458  and  _460
REMARK  193  A    between atoms: _460  and  _461
REMARK  194  A    between atoms: _460  and  _463
REMARK  195  A    between atoms: _463  and  _464
REMARK  196  A    between atoms: _464  and  _465
REMARK  197  A    between atoms: _465  and  _466
REMARK  198  A    between atoms: _466  and  _467
REMARK  199  A    between atoms: _471  and  _473
REMARK  200  A    between atoms: _473  and  _474
REMARK  201  A    between atoms: _473  and  _476
REMARK  202  A    between atoms: _476  and  _477
REMARK  203  A    between atoms: _477  and  _478
REMARK  204  A    between atoms: _481  and  _483
REMARK  205  A    between atoms: _483  and  _484
REMARK  206  A    between atoms: _483  and  _486
REMARK  207  A    between atoms: _486  and  _487
REMARK  208  A    between atoms: _487  and  _488
REMARK  209  A    between atoms: _488  and  _489
REMARK  210  A    between atoms: _489  and  _490
REMARK  211  A    between atoms: _494  and  _496
REMARK  212  A    between atoms: _496  and  _497
REMARK  213  A    between atoms: _496  and  _499
REMARK  214  A    between atoms: _499  and  _500
REMARK  215  A    between atoms: _500  and  _501
REMARK  216  A    between atoms: _504  and  _506
REMARK  217  A    between atoms: _506  and  _507
REMARK  218  A    between atoms: _506  and  _509
REMARK  219  A    between atoms: _509  and  _510
REMARK  220  A    between atoms: _515  and  _517
REMARK  221  A    between atoms: _517  and  _518
REMARK  222  A    between atoms: _517  and  _520
REMARK  223  A    between atoms: _520  and  _521
REMARK  224  A    between atoms: _524  and  _526
REMARK  225  A    between atoms: _526  and  _527
REMARK  226  A    between atoms: _526  and  _529
REMARK  227  A    between atoms: _529  and  _530
REMARK  228  A    between atoms: _533  and  _535
REMARK  229  A    between atoms: _535  and  _536
REMARK  230  A    between atoms: _535  and  _538
REMARK  231  A    between atoms: _538  and  _539
REMARK  232  A    between atoms: _539  and  _540
REMARK  233  A    between atoms: _542  and  _544
REMARK  234  A    between atoms: _544  and  _545
REMARK  235  A    between atoms: _544  and  _547
REMARK  236  A    between atoms: _547  and  _548
REMARK  237  A    between atoms: _548  and  _549
REMARK  238  A    between atoms: _549  and  _550
REMARK  239  A    between atoms: _550  and  _551
REMARK  240  A    between atoms: _555  and  _557
REMARK  241  A    between atoms: _557  and  _558
REMARK  242  A    between atoms: _557  and  _560
REMARK  243  A    between atoms: _560  and  _561
REMARK  244  A    between atoms: _564  and  _566
REMARK  245  A    between atoms: _566  and  _567
REMARK  246  A    between atoms: _570  and  _572
REMARK  247  A    between atoms: _572  and  _573
REMARK  248  A    between atoms: _572  and  _575
REMARK  249  A    between atoms: _575  and  _576
REMARK  250  A    between atoms: _579  and  _581
REMARK  251  A    between atoms: _581  and  _582
REMARK  252  A    between atoms: _581  and  _584
REMARK  253  A    between atoms: _584  and  _585
REMARK  254  A    between atoms: _591  and  _593
REMARK  255  A    between atoms: _593  and  _594
REMARK  256  A    between atoms: _596  and  _598
REMARK  257  A    between atoms: _598  and  _599
REMARK  258  A    between atoms: _598  and  _601
REMARK  259  A    between atoms: _601  and  _602
REMARK                            x       y       z     vdW  Elec       q    Type
REMARK                         _______ _______ _______ _____ _____    ______ ____
ROOT
ATOM      1  C   ALA A   3       4.924 -23.980  11.336  0.00  0.00    +0.241 C 
ATOM      2  N   ASP A   4       3.787 -24.616  11.580  0.00  0.00    -0.297 N 
ATOM      3  H   ASP A   4       3.830 -25.440  12.214  0.00  0.00    +0.150 HD
ATOM      4  O   ALA A   3       5.030 -22.877  10.778  0.00  0.00    -0.273 OA
ENDROOT
BRANCH   1   5
ATOM      5  CA  ALA A   3       6.183 -24.638  11.755  0.00  0.00    +0.149 C 
ATOM      6  CB  ALA A   3       6.693 -25.508  10.630  0.00  0.00    +0.031 C 
BRANCH   5   9
ATOM      7  C   ILE A   2       6.695 -24.952  14.109  0.00  0.00    +0.241 C 
ATOM      8  O   ILE A   2       7.097 -23.766  14.218  0.00  0.00    -0.273 OA
ATOM      9  N   ALA A   3       6.104 -25.411  13.001  0.00  0.00    -0.297 N 
ATOM     10  H   ALA A   3       5.589 -26.314  13.022  0.00  0.00    +0.150 HD
BRANCH   7  11
ATOM     11  CA  ILE A   2       6.792 -25.909  15.334  0.00  0.00    +0.148 C 
BRANCH  11  13
ATOM     12  C   LYS A   1       9.005 -26.638  14.743  0.00  0.00    +0.238 C 
ATOM     13  N   ILE A   2       8.238 -26.025  15.605  0.00  0.00    -0.297 N 
ATOM     14  H   ILE A   2       8.643 -25.622  16.474  0.00  0.00    +0.150 HD
ATOM     15  O   LYS A   1       8.563 -27.310  13.754  0.00  0.00    -0.274 OA
BRANCH  12  16
ATOM     16  CA  LYS A   1      10.480 -26.604  15.036  0.00  0.00    +0.145 C 
BRANCH  16  17
ATOM     17  N   LYS A   1      10.981 -27.922  15.309  0.00  0.00    -0.238 NA
ATOM     18  H   LYS A   1      10.714 -28.683  14.653  0.00  0.00    +0.142 HD
ENDBRANCH  16  17
BRANCH  16  19
ATOM     19  CB  LYS A   1      11.166 -25.988  13.815  0.00  0.00    +0.026 C 
BRANCH  19  20
ATOM     20  CG  LYS A   1      12.708 -25.974  13.844  0.00  0.00    -0.000 C 
BRANCH  20  21
ATOM     21  CD  LYS A   1      13.233 -24.831  14.617  0.00  0.00    -0.024 C 
BRANCH  21  22
ATOM     22  CE  LYS A   1      14.762 -24.913  14.740  0.00  0.00    -0.086 C 
BRANCH  22  23
ATOM     23  NZ  LYS A   1      15.341 -23.710  15.393  0.00  0.00    +0.380 N 
ATOM     24  HZ1 LYS A   1      14.945 -23.612  16.350  0.00  0.00    -0.089 HD
ATOM     25  HZ2 LYS A   1      16.374 -23.813  15.453  0.00  0.00    -0.089 HD
ATOM     26  HZ3 LYS A   1      15.107 -22.866  14.832  0.00  0.00    -0.089 HD
ENDBRANCH  22  23
ENDBRANCH  21  22
ENDBRANCH  20  21
ENDBRANCH  19  20
ENDBRANCH  16  19
ENDBRANCH  12  16
ENDBRANCH  11  13
BRANCH  11  27
ATOM     27  CB  ILE A   2       5.936 -25.362  16.489  0.00  0.00    +0.027 C 
ATOM     28  CG2 ILE A   2       4.482 -25.216  16.016  0.00  0.00    +0.002 C 
BRANCH  27  29
ATOM     29  CG1 ILE A   2       6.067 -26.327  17.675  0.00  0.00    +0.002 C 
ATOM     30  CD1 ILE A   2       5.323 -25.828  18.918  0.00  0.00    +0.000 C 
ENDBRANCH  27  29
ENDBRANCH  11  27
ENDBRANCH   7  11
ENDBRANCH   5   9
ENDBRANCH   1   5
BRANCH   2  31
ATOM     31  CA  ASP A   4       2.459 -24.254  11.027  0.00  0.00    +0.160 C 
BRANCH  31  32
ATOM     32  C   ASP A   4       1.541 -23.811  12.169  0.00  0.00    +0.241 C 
ATOM     33  O   ASP A   4       1.421 -24.615  13.149  0.00  0.00    -0.273 OA
ATOM     34  N   PHE A   5       0.949 -22.611  12.122  0.00  0.00    -0.297 N 
ATOM     35  H   PHE A   5       1.162 -22.001  11.307  0.00  0.00    +0.150 HD
BRANCH  34  36
ATOM     36  CA  PHE A   5       0.020 -22.091  13.137  0.00  0.00    +0.153 C 
BRANCH  36  37
ATOM     37  C   PHE A   5      -1.414 -21.824  12.566  0.00  0.00    +0.241 C 
ATOM     38  O   PHE A   5      -2.103 -21.026  13.076  0.00  0.00    -0.273 OA
ATOM     39  N   GLY A   6      -1.790 -22.691  11.641  0.00  0.00    -0.296 N 
ATOM     40  H   GLY A   6      -1.178 -23.504  11.426  0.00  0.00    +0.150 HD
BRANCH  39  41
ATOM     41  CA  GLY A   6      -3.013 -22.535  10.934  0.00  0.00    +0.163 C 
BRANCH  41  42
ATOM     42  C   GLY A   6      -4.290 -22.558  11.771  0.00  0.00    +0.229 C 
ATOM     43  O   GLY A   6      -5.297 -21.931  11.377  0.00  0.00    -0.286 OA
ENDBRANCH  41  42
ENDBRANCH  39  41
ENDBRANCH  36  37
BRANCH  36  44
ATOM     44  CB  PHE A   5       0.608 -20.795  13.789  0.00  0.00    +0.055 C 
BRANCH  44  45
ATOM     45  CG  PHE A   5       1.799 -21.051  14.755  0.00  0.00    -0.020 A 
ATOM     46  CD2 PHE A   5       1.578 -21.079  16.113  0.00  0.00    -0.004 A 
ATOM     47  CE2 PHE A   5       2.605 -21.380  16.995  0.00  0.00    -0.000 A 
ATOM     48  CZ  PHE A   5       3.887 -21.678  16.485  0.00  0.00    -0.000 A 
ATOM     49  CE1 PHE A   5       4.119 -21.667  15.115  0.00  0.00    -0.000 A 
ATOM     50  CD1 PHE A   5       3.045 -21.383  14.268  0.00  0.00    -0.004 A 
ENDBRANCH  44  45
ENDBRANCH  36  44
ENDBRANCH  34  36
ENDBRANCH  31  32
BRANCH  31  51
ATOM     51  CB  ASP A   4       1.889 -25.425  10.318  0.00  0.00    +0.143 C 
BRANCH  51  52
ATOM     52  CG  ASP A   4       0.626 -25.074   9.531  0.00  0.00    +0.367 C 
ATOM     53  OD2 ASP A   4      -0.456 -24.999  10.125  0.00  0.00    -0.246 OA
ATOM     54  OD1 ASP A   4       0.746 -24.890   8.300  0.00  0.00    -0.246 OA
ENDBRANCH  51  52
ENDBRANCH  31  51
ENDBRANCH   2  31
TORSDOF 23
REMARK  Name = ../refined-set-2016/4c2v/4c2v_pocket.pdb
REMARK  259 active torsions:
REMARK  status: ('A' for Active; 'I' for Inactive)
REMARK    1  A    between atoms: _1  and  _3
REMARK    2  A    between atoms: _3  and  _4
REMARK    3  A    between atoms: _3  and  _6
REMARK    4  A    between atoms: _6  and  _7
REMARK    5  A    between atoms: _7  and  _8
REMARK    6  A    between atoms: _8  and  _9
REMARK    7  A    between atoms: _19  and  _20
REMARK    8  A    between atoms: _25  and  _27
REMARK    9  A    between atoms: _27  and  _28
REMARK   10  A    between atoms: _27  and  _30
REMARK   11  A    between atoms: _30  and  _31
REMARK   12  A    between atoms: _34  and  _36
REMARK   13  A    between atoms: _36  and  _37
REMARK   14  A    between atoms: _39  and  _41
REMARK   15  A    between atoms: _41  and  _42
REMARK   16  A    between atoms: _41  and  _44
REMARK   17  A    between atoms: _44  and  _45
REMARK   18  A    between atoms: _45  and  _46
REMARK   19  A    between atoms: _46  and  _47
REMARK   20  A    between atoms: _47  and  _48
REMARK   21  A    between atoms: _52  and  _54
REMARK   22  A    between atoms: _54  and  _55
REMARK   23  A    between atoms: _57  and  _59
REMARK   24  A    between atoms: _59  and  _60
REMARK   25  A    between atoms: _59  and  _62
REMARK   26  A    between atoms: _62  and  _63
REMARK   27  A    between atoms: _63  and  _64
REMARK   28  A    between atoms: _64  and  _65
REMARK   29  A    between atoms: _65  and  _66
REMARK   30  A    between atoms: _70  and  _72
REMARK   31  A    between atoms: _72  and  _73
REMARK   32  A    between atoms: _72  and  _75
REMARK   33  A    between atoms: _75  and  _76
REMARK   34  A    between atoms: _82  and  _84
REMARK   35  A    between atoms: _84  and  _85
REMARK   36  A    between atoms: _87  and  _89
REMARK   37  A    between atoms: _89  and  _90
REMARK   38  A    between atoms: _89  and  _92
REMARK   39  A    between atoms: _92  and  _93
REMARK   40  A    between atoms: _98  and  _100
REMARK   41  A    between atoms: _100  and  _101
REMARK   42  A    between atoms: _100  and  _103
REMARK   43  A    between atoms: _106  and  _108
REMARK   44  A    between atoms: _108  and  _109
REMARK   45  A    between atoms: _108  and  _111
REMARK   46  A    between atoms: _111  and  _112
REMARK   47  A    between atoms: _117  and  _118
REMARK   48  A    between atoms: _120  and  _122
REMARK   49  A    between atoms: _122  and  _123
REMARK   50  A    between atoms: _122  and  _125
REMARK   51  A    between atoms: _125  and  _126
REMARK   52  A    between atoms: _129  and  _131
REMARK   53  A    between atoms: _131  and  _132
REMARK   54  A    between atoms: _135  and  _137
REMARK   55  A    between atoms: _137  and  _138
REMARK   56  A    between atoms: _137  and  _140
REMARK   57  A    between atoms: _140  and  _141
REMARK   58  A    between atoms: _141  and  _142
REMARK   59  A    between atoms: _144  and  _146
REMARK   60  A    between atoms: _146  and  _147
REMARK   61  A    between atoms: _150  and  _152
REMARK   62  A    between atoms: _152  and  _153
REMARK   63  A    between atoms: _152  and  _155
REMARK   64  A    between atoms: _155  and  _156
REMARK   65  A    between atoms: _159  and  _161
REMARK   66  A    between atoms: _161  and  _162
REMARK   67  A    between atoms: _161  and  _164
REMARK   68  A    between atoms: _164  and  _165
REMARK   69  A    between atoms: _165  and  _166
REMARK   70  A    between atoms: _166  and  _167
REMARK   71  A    between atoms: _167  and  _168
REMARK   72  A    between atoms: _172  and  _174
REMARK   73  A    between atoms: _174  and  _175
REMARK   74  A    between atoms: _174  and  _177
REMARK   75  A    between atoms: _180  and  _182
REMARK   76  A    between atoms: _182  and  _183
REMARK   77  A    between atoms: _182  and  _185
REMARK   78  A    between atoms: _185  and  _186
REMARK   79  A    between atoms: _189  and  _191
REMARK   80  A    between atoms: _191  and  _192
REMARK   81  A    between atoms: _191  and  _194
REMARK   82  A    between atoms: _194  and  _195
REMARK   83  A    between atoms: _198  and  _200
REMARK   84  A    between atoms: _200  and  _201
REMARK   85  A    between atoms: _200  and  _203
REMARK   86  A    between atoms: _203  and  _204
REMARK   87  A    between atoms: _204  and  _205
REMARK   88  A    between atoms: _210  and  _212
REMARK   89  A    between atoms: _212  and  _213
REMARK   90  A    between atoms: _212  and  _215
REMARK   91  A    between atoms: _215  and  _216
REMARK   92  A    between atoms: _219  and  _221
REMARK   93  A    between atoms: _221  and  _222
REMARK   94  A    between atoms: _221  and  _224
REMARK   95  A    between atoms: _224  and  _225
REMARK   96  A    between atoms: _225  and  _226
REMARK   97  A    between atoms: _226  and  _227
REMARK   98  A    between atoms: _236  and  _238
REMARK   99  A    between atoms: _238  and  _239
REMARK  100  A    between atoms: _238  and  _241
REMARK  101  A    between atoms: _241  and  _242
REMARK  102  A    between atoms: _242  and  _243
REMARK  103  A    between atoms: _243  and  _244
REMARK  104  A    between atoms: _253  and  _255
REMARK  105  A    between atoms: _255  and  _256
REMARK  106  A    between atoms: _255  and  _258
REMARK  107  A    between atoms: _258  and  _259
REMARK  108  A    between atoms: _259  and  _260
REMARK  109  A    between atoms: _263  and  _265
REMARK  110  A    between atoms: _265  and  _266
REMARK  111  A    between atoms: _265  and  _268
REMARK  112  A    between atoms: _268  and  _269
REMARK  113  A    between atoms: _272  and  _274
REMARK  114  A    between atoms: _274  and  _275
REMARK  115  A    between atoms: _274  and  _277
REMARK  116  A    between atoms: _277  and  _278
REMARK  117  A    between atoms: _278  and  _279
REMARK  118  A    between atoms: _282  and  _284
REMARK  119  A    between atoms: _284  and  _285
REMARK  120  A    between atoms: _284  and  _287
REMARK  121  A    between atoms: _287  and  _288
REMARK  122  A    between atoms: _291  and  _293
REMARK  123  A    between atoms: _293  and  _294
REMARK  124  A    between atoms: _293  and  _296
REMARK  125  A    between atoms: _296  and  _297
REMARK  126  A    between atoms: _297  and  _298
REMARK  127  A    between atoms: _303  and  _305
REMARK  128  A    between atoms: _305  and  _306
REMARK  129  A    between atoms: _305  and  _308
REMARK  130  A    between atoms: _308  and  _309
REMARK  131  A    between atoms: _311  and  _313
REMARK  132  A    between atoms: _313  and  _314
REMARK  133  A    between atoms: _313  and  _316
REMARK  134  A    between atoms: _316  and  _317
REMARK  135  A    between atoms: _320  and  _322
REMARK  136  A    between atoms: _322  and  _323
REMARK  137  A    between atoms: _322  and  _325
REMARK  138  A    between atoms: _325  and  _326
REMARK  139  A    between atoms: _326  and  _327
REMARK  140  A    between atoms: _327  and  _328
REMARK  141  A    between atoms: _337  and  _339
REMARK  142  A    between atoms: _339  and  _340
REMARK  143  A    between atoms: _339  and  _342
REMARK  144  A    between atoms: _342  and  _343
REMARK  145  A    between atoms: _343  and  _344
REMARK  146  A    between atoms: _346  and  _348
REMARK  147  A    between atoms: _348  and  _349
REMARK  148  A    between atoms: _348  and  _351
REMARK  149  A    between atoms: _351  and  _352
REMARK  150  A    between atoms: _355  and  _357
REMARK  151  A    between atoms: _357  and  _358
REMARK  152  A    between atoms: _357  and  _360
REMARK  153  A    between atoms: _360  and  _361
REMARK  154  A    between atoms: _364  and  _366
REMARK  155  A    between atoms: _366  and  _367
REMARK  156  A    between atoms: _366  and  _369
REMARK  157  A    between atoms: _369  and  _370
REMARK  158  A    between atoms: _370  and  _371
REMARK  159  A    between atoms: _373  and  _375
REMARK  160  A    between atoms: _375  and  _376
REMARK  161  A    between atoms: _375  and  _378
REMARK  162  A    between atoms: _378  and  _379
REMARK  163  A    between atoms: _382  and  _384
REMARK  164  A    between atoms: _384  and  _385
REMARK  165  A    between atoms: _384  and  _387
REMARK  166  A    between atoms: _387  and  _388
REMARK  167  A    between atoms: _388  and  _389
REMARK  168  A    between atoms: _392  and  _394
REMARK  169  A    between atoms: _394  and  _395
REMARK  170  A    between atoms: _394  and  _397
REMARK  171  A    between atoms: _397  and  _398
REMARK  172  A    between atoms: _404  and  _406
REMARK  173  A    between atoms: _406  and  _407
REMARK  174  A    between atoms: _411  and  _412
REMARK  175  A    between atoms: _417  and  _419
REMARK  176  A    between atoms: _419  and  _420
REMARK  177  A    between atoms: _419  and  _422
REMARK  178  A    between atoms: _422  and  _423
REMARK  179  A    between atoms: _423  and  _424
REMARK  180  A    between atoms: _424  and  _425
REMARK  181  A    between atoms: _434  and  _436
REMARK  182  A    between atoms: _436  and  _437
REMARK  183  A    between atoms: _439  and  _441
REMARK  184  A    between atoms: _441  and  _442
REMARK  185  A    between atoms: _441  and  _444
REMARK  186  A    between atoms: _444  and  _445
REMARK  187  A    between atoms: _445  and  _446
REMARK  188  A    between atoms: _449  and  _451
REMARK  189  A    between atoms: _451  and  _452
REMARK  190  A    between atoms: _451  and  _454
REMARK  191  A    between atoms: _454  and  _455
REMARK  192  A    between atoms: _458  and  _460
REMARK  193  A    between atoms: _460  and  _461
REMARK  194  A    between atoms: _460  and  _463
REMARK  195  A    between atoms: _463  and  _464
REMARK  196  A    between atoms: _464  and  _465
REMARK  197  A    between atoms: _465  and  _466
REMARK  198  A    between atoms: _466  and  _467
REMARK  199  A    between atoms: _471  and  _473
REMARK  200  A    between atoms: _473  and  _474
REMARK  201  A    between atoms: _473  and  _476
REMARK  202  A    between atoms: _476  and  _477
REMARK  203  A    between atoms: _477  and  _478
REMARK  204  A    between atoms: _481  and  _483
REMARK  205  A    between atoms: _483  and  _484
REMARK  206  A    between atoms: _483  and  _486
REMARK  207  A    between atoms: _486  and  _487
REMARK  208  A    between atoms: _487  and  _488
REMARK  209  A    between atoms: _488  and  _489
REMARK  210  A    between atoms: _489  and  _490
REMARK  211  A    between atoms: _494  and  _496
REMARK  212  A    between atoms: _496  and  _497
REMARK  213  A    between atoms: _496  and  _499
REMARK  214  A    between atoms: _499  and  _500
REMARK  215  A    between atoms: _500  and  _501
REMARK  216  A    between atoms: _504  and  _506
REMARK  217  A    between atoms: _506  and  _507
REMARK  218  A    between atoms: _506  and  _509
REMARK  219  A    between atoms: _509  and  _510
REMARK  220  A    between atoms: _515  and  _517
REMARK  221  A    between atoms: _517  and  _518
REMARK  222  A    between atoms: _517  and  _520
REMARK  223  A    between atoms: _520  and  _521
REMARK  224  A    between atoms: _524  and  _526
REMARK  225  A    between atoms: _526  and  _527
REMARK  226  A    between atoms: _526  and  _529
REMARK  227  A    between atoms: _529  and  _530
REMARK  228  A    between atoms: _533  and  _535
REMARK  229  A    between atoms: _535  and  _536
REMARK  230  A    between atoms: _535  and  _538
REMARK  231  A    between atoms: _538  and  _539
REMARK  232  A    between atoms: _539  and  _540
REMARK  233  A    between atoms: _542  and  _544
REMARK  234  A    between atoms: _544  and  _545
REMARK  235  A    between atoms: _544  and  _547
REMARK  236  A    between atoms: _547  and  _548
REMARK  237  A    between atoms: _548  and  _549
REMARK  238  A    between atoms: _549  and  _550
REMARK  239  A    between atoms: _550  and  _551
REMARK  240  A    between atoms: _555  and  _557
REMARK  241  A    between atoms: _557  and  _558
REMARK  242  A    between atoms: _557  and  _560
REMARK  243  A    between atoms: _560  and  _561
REMARK  244  A    between atoms: _564  and  _566
REMARK  245  A    between atoms: _566  and  _567
REMARK  246  A    between atoms: _570  and  _572
REMARK  247  A    between atoms: _572  and  _573
REMARK  248  A    between atoms: _572  and  _575
REMARK  249  A    between atoms: _575  and  _576
REMARK  250  A    between atoms: _579  and  _581
REMARK  251  A    between atoms: _581  and  _582
REMARK  252  A    between atoms: _581  and  _584
REMARK  253  A    between atoms: _584  and  _585
REMARK  254  A    between atoms: _591  and  _593
REMARK  255  A    between atoms: _593  and  _594
REMARK  256  A    between atoms: _596  and  _598
REMARK  257  A    between atoms: _598  and  _599
REMARK  258  A    between atoms: _598  and  _601
REMARK  259  A    between atoms: _601  and  _602
REMARK                            x       y       z     vdW  Elec       q    Type
REMARK                         _______ _______ _______ _____ _____    ______ ____
ROOT
ATOM      1  CA  LEU A   1      24.702 -25.561   0.811  0.00  0.00    +0.133 C 
ENDROOT
BRANCH   1   2
ATOM      2  N   LEU A   1      25.816 -25.787  -0.111  0.00  0.00    -0.239 NA
ATOM      3  H   LEU A   1      25.691 -26.418  -0.928  0.00  0.00    +0.142 HD
ENDBRANCH   1   2
BRANCH   1   4
ATOM      4  C   LEU A   1      25.044 -26.077   2.218  0.00  0.00    +0.224 C 
ATOM      5  O   LEU A   1      24.910 -25.357   3.206  0.00  0.00    -0.287 OA
ENDBRANCH   1   4
BRANCH   1   6
ATOM      6  CB  LEU A   1      23.407 -26.184   0.278  0.00  0.00    +0.025 C 
BRANCH   6   7
ATOM      7  CG  LEU A   1      22.182 -26.070   1.181  0.00  0.00    +0.002 C 
ATOM      8  CD2 LEU A   1      22.015 -24.586   1.398  0.00  0.00    +0.000 C 
ATOM      9  CD1 LEU A   1      20.893 -26.707   0.654  0.00  0.00    +0.000 C 
ENDBRANCH   6   7
ENDBRANCH   1   6
TORSDOF 4
REMARK  Name = ../refined-set-2016/4c2v/4c2v_pocket.pdb
REMARK  259 active torsions:
REMARK  status: ('A' for Active; 'I' for Inactive)
REMARK    1  A    between atoms: _1  and  _3
REMARK    2  A    between atoms: _3  and  _4
REMARK    3  A    between atoms: _3  and  _6
REMARK    4  A    between atoms: _6  and  _7
REMARK    5  A    between atoms: _7  and  _8
REMARK    6  A    between atoms: _8  and  _9
REMARK    7  A    between atoms: _19  and  _20
REMARK    8  A    between atoms: _25  and  _27
REMARK    9  A    between atoms: _27  and  _28
REMARK   10  A    between atoms: _27  and  _30
REMARK   11  A    between atoms: _30  and  _31
REMARK   12  A    between atoms: _34  and  _36
REMARK   13  A    between atoms: _36  and  _37
REMARK   14  A    between atoms: _39  and  _41
REMARK   15  A    between atoms: _41  and  _42
REMARK   16  A    between atoms: _41  and  _44
REMARK   17  A    between atoms: _44  and  _45
REMARK   18  A    between atoms: _45  and  _46
REMARK   19  A    between atoms: _46  and  _47
REMARK   20  A    between atoms: _47  and  _48
REMARK   21  A    between atoms: _52  and  _54
REMARK   22  A    between atoms: _54  and  _55
REMARK   23  A    between atoms: _57  and  _59
REMARK   24  A    between atoms: _59  and  _60
REMARK   25  A    between atoms: _59  and  _62
REMARK   26  A    between atoms: _62  and  _63
REMARK   27  A    between atoms: _63  and  _64
REMARK   28  A    between atoms: _64  and  _65
REMARK   29  A    between atoms: _65  and  _66
REMARK   30  A    between atoms: _70  and  _72
REMARK   31  A    between atoms: _72  and  _73
REMARK   32  A    between atoms: _72  and  _75
REMARK   33  A    between atoms: _75  and  _76
REMARK   34  A    between atoms: _82  and  _84
REMARK   35  A    between atoms: _84  and  _85
REMARK   36  A    between atoms: _87  and  _89
REMARK   37  A    between atoms: _89  and  _90
REMARK   38  A    between atoms: _89  and  _92
REMARK   39  A    between atoms: _92  and  _93
REMARK   40  A    between atoms: _98  and  _100
REMARK   41  A    between atoms: _100  and  _101
REMARK   42  A    between atoms: _100  and  _103
REMARK   43  A    between atoms: _106  and  _108
REMARK   44  A    between atoms: _108  and  _109
REMARK   45  A    between atoms: _108  and  _111
REMARK   46  A    between atoms: _111  and  _112
REMARK   47  A    between atoms: _117  and  _118
REMARK   48  A    between atoms: _120  and  _122
REMARK   49  A    between atoms: _122  and  _123
REMARK   50  A    between atoms: _122  and  _125
REMARK   51  A    between atoms: _125  and  _126
REMARK   52  A    between atoms: _129  and  _131
REMARK   53  A    between atoms: _131  and  _132
REMARK   54  A    between atoms: _135  and  _137
REMARK   55  A    between atoms: _137  and  _138
REMARK   56  A    between atoms: _137  and  _140
REMARK   57  A    between atoms: _140  and  _141
REMARK   58  A    between atoms: _141  and  _142
REMARK   59  A    between atoms: _144  and  _146
REMARK   60  A    between atoms: _146  and  _147
REMARK   61  A    between atoms: _150  and  _152
REMARK   62  A    between atoms: _152  and  _153
REMARK   63  A    between atoms: _152  and  _155
REMARK   64  A    between atoms: _155  and  _156
REMARK   65  A    between atoms: _159  and  _161
REMARK   66  A    between atoms: _161  and  _162
REMARK   67  A    between atoms: _161  and  _164
REMARK   68  A    between atoms: _164  and  _165
REMARK   69  A    between atoms: _165  and  _166
REMARK   70  A    between atoms: _166  and  _167
REMARK   71  A    between atoms: _167  and  _168
REMARK   72  A    between atoms: _172  and  _174
REMARK   73  A    between atoms: _174  and  _175
REMARK   74  A    between atoms: _174  and  _177
REMARK   75  A    between atoms: _180  and  _182
REMARK   76  A    between atoms: _182  and  _183
REMARK   77  A    between atoms: _182  and  _185
REMARK   78  A    between atoms: _185  and  _186
REMARK   79  A    between atoms: _189  and  _191
REMARK   80  A    between atoms: _191  and  _192
REMARK   81  A    between atoms: _191  and  _194
REMARK   82  A    between atoms: _194  and  _195
REMARK   83  A    between atoms: _198  and  _200
REMARK   84  A    between atoms: _200  and  _201
REMARK   85  A    between atoms: _200  and  _203
REMARK   86  A    between atoms: _203  and  _204
REMARK   87  A    between atoms: _204  and  _205
REMARK   88  A    between atoms: _210  and  _212
REMARK   89  A    between atoms: _212  and  _213
REMARK   90  A    between atoms: _212  and  _215
REMARK   91  A    between atoms: _215  and  _216
REMARK   92  A    between atoms: _219  and  _221
REMARK   93  A    between atoms: _221  and  _222
REMARK   94  A    between atoms: _221  and  _224
REMARK   95  A    between atoms: _224  and  _225
REMARK   96  A    between atoms: _225  and  _226
REMARK   97  A    between atoms: _226  and  _227
REMARK   98  A    between atoms: _236  and  _238
REMARK   99  A    between atoms: _238  and  _239
REMARK  100  A    between atoms: _238  and  _241
REMARK  101  A    between atoms: _241  and  _242
REMARK  102  A    between atoms: _242  and  _243
REMARK  103  A    between atoms: _243  and  _244
REMARK  104  A    between atoms: _253  and  _255
REMARK  105  A    between atoms: _255  and  _256
REMARK  106  A    between atoms: _255  and  _258
REMARK  107  A    between atoms: _258  and  _259
REMARK  108  A    between atoms: _259  and  _260
REMARK  109  A    between atoms: _263  and  _265
REMARK  110  A    between atoms: _265  and  _266
REMARK  111  A    between atoms: _265  and  _268
REMARK  112  A    between atoms: _268  and  _269
REMARK  113  A    between atoms: _272  and  _274
REMARK  114  A    between atoms: _274  and  _275
REMARK  115  A    between atoms: _274  and  _277
REMARK  116  A    between atoms: _277  and  _278
REMARK  117  A    between atoms: _278  and  _279
REMARK  118  A    between atoms: _282  and  _284
REMARK  119  A    between atoms: _284  and  _285
REMARK  120  A    between atoms: _284  and  _287
REMARK  121  A    between atoms: _287  and  _288
REMARK  122  A    between atoms: _291  and  _293
REMARK  123  A    between atoms: _293  and  _294
REMARK  124  A    between atoms: _293  and  _296
REMARK  125  A    between atoms: _296  and  _297
REMARK  126  A    between atoms: _297  and  _298
REMARK  127  A    between atoms: _303  and  _305
REMARK  128  A    between atoms: _305  and  _306
REMARK  129  A    between atoms: _305  and  _308
REMARK  130  A    between atoms: _308  and  _309
REMARK  131  A    between atoms: _311  and  _313
REMARK  132  A    between atoms: _313  and  _314
REMARK  133  A    between atoms: _313  and  _316
REMARK  134  A    between atoms: _316  and  _317
REMARK  135  A    between atoms: _320  and  _322
REMARK  136  A    between atoms: _322  and  _323
REMARK  137  A    between atoms: _322  and  _325
REMARK  138  A    between atoms: _325  and  _326
REMARK  139  A    between atoms: _326  and  _327
REMARK  140  A    between atoms: _327  and  _328
REMARK  141  A    between atoms: _337  and  _339
REMARK  142  A    between atoms: _339  and  _340
REMARK  143  A    between atoms: _339  and  _342
REMARK  144  A    between atoms: _342  and  _343
REMARK  145  A    between atoms: _343  and  _344
REMARK  146  A    between atoms: _346  and  _348
REMARK  147  A    between atoms: _348  and  _349
REMARK  148  A    between atoms: _348  and  _351
REMARK  149  A    between atoms: _351  and  _352
REMARK  150  A    between atoms: _355  and  _357
REMARK  151  A    between atoms: _357  and  _358
REMARK  152  A    between atoms: _357  and  _360
REMARK  153  A    between atoms: _360  and  _361
REMARK  154  A    between atoms: _364  and  _366
REMARK  155  A    between atoms: _366  and  _367
REMARK  156  A    between atoms: _366  and  _369
REMARK  157  A    between atoms: _369  and  _370
REMARK  158  A    between atoms: _370  and  _371
REMARK  159  A    between atoms: _373  and  _375
REMARK  160  A    between atoms: _375  and  _376
REMARK  161  A    between atoms: _375  and  _378
REMARK  162  A    between atoms: _378  and  _379
REMARK  163  A    between atoms: _382  and  _384
REMARK  164  A    between atoms: _384  and  _385
REMARK  165  A    between atoms: _384  and  _387
REMARK  166  A    between atoms: _387  and  _388
REMARK  167  A    between atoms: _388  and  _389
REMARK  168  A    between atoms: _392  and  _394
REMARK  169  A    between atoms: _394  and  _395
REMARK  170  A    between atoms: _394  and  _397
REMARK  171  A    between atoms: _397  and  _398
REMARK  172  A    between atoms: _404  and  _406
REMARK  173  A    between atoms: _406  and  _407
REMARK  174  A    between atoms: _411  and  _412
REMARK  175  A    between atoms: _417  and  _419
REMARK  176  A    between atoms: _419  and  _420
REMARK  177  A    between atoms: _419  and  _422
REMARK  178  A    between atoms: _422  and  _423
REMARK  179  A    between atoms: _423  and  _424
REMARK  180  A    between atoms: _424  and  _425
REMARK  181  A    between atoms: _434  and  _436
REMARK  182  A    between atoms: _436  and  _437
REMARK  183  A    between atoms: _439  and  _441
REMARK  184  A    between atoms: _441  and  _442
REMARK  185  A    between atoms: _441  and  _444
REMARK  186  A    between atoms: _444  and  _445
REMARK  187  A    between atoms: _445  and  _446
REMARK  188  A    between atoms: _449  and  _451
REMARK  189  A    between atoms: _451  and  _452
REMARK  190  A    between atoms: _451  and  _454
REMARK  191  A    between atoms: _454  and  _455
REMARK  192  A    between atoms: _458  and  _460
REMARK  193  A    between atoms: _460  and  _461
REMARK  194  A    between atoms: _460  and  _463
REMARK  195  A    between atoms: _463  and  _464
REMARK  196  A    between atoms: _464  and  _465
REMARK  197  A    between atoms: _465  and  _466
REMARK  198  A    between atoms: _466  and  _467
REMARK  199  A    between atoms: _471  and  _473
REMARK  200  A    between atoms: _473  and  _474
REMARK  201  A    between atoms: _473  and  _476
REMARK  202  A    between atoms: _476  and  _477
REMARK  203  A    between atoms: _477  and  _478
REMARK  204  A    between atoms: _481  and  _483
REMARK  205  A    between atoms: _483  and  _484
REMARK  206  A    between atoms: _483  and  _486
REMARK  207  A    between atoms: _486  and  _487
REMARK  208  A    between atoms: _487  and  _488
REMARK  209  A    between atoms: _488  and  _489
REMARK  210  A    between atoms: _489  and  _490
REMARK  211  A    between atoms: _494  and  _496
REMARK  212  A    between atoms: _496  and  _497
REMARK  213  A    between atoms: _496  and  _499
REMARK  214  A    between atoms: _499  and  _500
REMARK  215  A    between atoms: _500  and  _501
REMARK  216  A    between atoms: _504  and  _506
REMARK  217  A    between atoms: _506  and  _507
REMARK  218  A    between atoms: _506  and  _509
REMARK  219  A    between atoms: _509  and  _510
REMARK  220  A    between atoms: _515  and  _517
REMARK  221  A    between atoms: _517  and  _518
REMARK  222  A    between atoms: _517  and  _520
REMARK  223  A    between atoms: _520  and  _521
REMARK  224  A    between atoms: _524  and  _526
REMARK  225  A    between atoms: _526  and  _527
REMARK  226  A    between atoms: _526  and  _529
REMARK  227  A    between atoms: _529  and  _530
REMARK  228  A    between atoms: _533  and  _535
REMARK  229  A    between atoms: _535  and  _536
REMARK  230  A    between atoms: _535  and  _538
REMARK  231  A    between atoms: _538  and  _539
REMARK  232  A    between atoms: _539  and  _540
REMARK  233  A    between atoms: _542  and  _544
REMARK  234  A    between atoms: _544  and  _545
REMARK  235  A    between atoms: _544  and  _547
REMARK  236  A    between atoms: _547  and  _548
REMARK  237  A    between atoms: _548  and  _549
REMARK  238  A    between atoms: _549  and  _550
REMARK  239  A    between atoms: _550  and  _551
REMARK  240  A    between atoms: _555  and  _557
REMARK  241  A    between atoms: _557  and  _558
REMARK  242  A    between atoms: _557  and  _560
REMARK  243  A    between atoms: _560  and  _561
REMARK  244  A    between atoms: _564  and  _566
REMARK  245  A    between atoms: _566  and  _567
REMARK  246  A    between atoms: _570  and  _572
REMARK  247  A    between atoms: _572  and  _573
REMARK  248  A    between atoms: _572  and  _575
REMARK  249  A    between atoms: _575  and  _576
REMARK  250  A    between atoms: _579  and  _581
REMARK  251  A    between atoms: _581  and  _582
REMARK  252  A    between atoms: _581  and  _584
REMARK  253  A    between atoms: _584  and  _585
REMARK  254  A    between atoms: _591  and  _593
REMARK  255  A    between atoms: _593  and  _594
REMARK  256  A    between atoms: _596  and  _598
REMARK  257  A    between atoms: _598  and  _599
REMARK  258  A    between atoms: _598  and  _601
REMARK  259  A    between atoms: _601  and  _602
REMARK                            x       y       z     vdW  Elec       q    Type
REMARK                         _______ _______ _______ _____ _____    ______ ____
ROOT
ATOM      1  O   HOH     1      17.410 -28.748   1.287  0.00  0.00    +0.000 OA
ENDROOT
TORSDOF 0
REMARK  Name = ../refined-set-2016/4c2v/4c2v_pocket.pdb
REMARK  259 active torsions:
REMARK  status: ('A' for Active; 'I' for Inactive)
REMARK    1  A    between atoms: _1  and  _3
REMARK    2  A    between atoms: _3  and  _4
REMARK    3  A    between atoms: _3  and  _6
REMARK    4  A    between atoms: _6  and  _7
REMARK    5  A    between atoms: _7  and  _8
REMARK    6  A    between atoms: _8  and  _9
REMARK    7  A    between atoms: _19  and  _20
REMARK    8  A    between atoms: _25  and  _27
REMARK    9  A    between atoms: _27  and  _28
REMARK   10  A    between atoms: _27  and  _30
REMARK   11  A    between atoms: _30  and  _31
REMARK   12  A    between atoms: _34  and  _36
REMARK   13  A    between atoms: _36  and  _37
REMARK   14  A    between atoms: _39  and  _41
REMARK   15  A    between atoms: _41  and  _42
REMARK   16  A    between atoms: _41  and  _44
REMARK   17  A    between atoms: _44  and  _45
REMARK   18  A    between atoms: _45  and  _46
REMARK   19  A    between atoms: _46  and  _47
REMARK   20  A    between atoms: _47  and  _48
REMARK   21  A    between atoms: _52  and  _54
REMARK   22  A    between atoms: _54  and  _55
REMARK   23  A    between atoms: _57  and  _59
REMARK   24  A    between atoms: _59  and  _60
REMARK   25  A    between atoms: _59  and  _62
REMARK   26  A    between atoms: _62  and  _63
REMARK   27  A    between atoms: _63  and  _64
REMARK   28  A    between atoms: _64  and  _65
REMARK   29  A    between atoms: _65  and  _66
REMARK   30  A    between atoms: _70  and  _72
REMARK   31  A    between atoms: _72  and  _73
REMARK   32  A    between atoms: _72  and  _75
REMARK   33  A    between atoms: _75  and  _76
REMARK   34  A    between atoms: _82  and  _84
REMARK   35  A    between atoms: _84  and  _85
REMARK   36  A    between atoms: _87  and  _89
REMARK   37  A    between atoms: _89  and  _90
REMARK   38  A    between atoms: _89  and  _92
REMARK   39  A    between atoms: _92  and  _93
REMARK   40  A    between atoms: _98  and  _100
REMARK   41  A    between atoms: _100  and  _101
REMARK   42  A    between atoms: _100  and  _103
REMARK   43  A    between atoms: _106  and  _108
REMARK   44  A    between atoms: _108  and  _109
REMARK   45  A    between atoms: _108  and  _111
REMARK   46  A    between atoms: _111  and  _112
REMARK   47  A    between atoms: _117  and  _118
REMARK   48  A    between atoms: _120  and  _122
REMARK   49  A    between atoms: _122  and  _123
REMARK   50  A    between atoms: _122  and  _125
REMARK   51  A    between atoms: _125  and  _126
REMARK   52  A    between atoms: _129  and  _131
REMARK   53  A    between atoms: _131  and  _132
REMARK   54  A    between atoms: _135  and  _137
REMARK   55  A    between atoms: _137  and  _138
REMARK   56  A    between atoms: _137  and  _140
REMARK   57  A    between atoms: _140  and  _141
REMARK   58  A    between atoms: _141  and  _142
REMARK   59  A    between atoms: _144  and  _146
REMARK   60  A    between atoms: _146  and  _147
REMARK   61  A    between atoms: _150  and  _152
REMARK   62  A    between atoms: _152  and  _153
REMARK   63  A    between atoms: _152  and  _155
REMARK   64  A    between atoms: _155  and  _156
REMARK   65  A    between atoms: _159  and  _161
REMARK   66  A    between atoms: _161  and  _162
REMARK   67  A    between atoms: _161  and  _164
REMARK   68  A    between atoms: _164  and  _165
REMARK   69  A    between atoms: _165  and  _166
REMARK   70  A    between atoms: _166  and  _167
REMARK   71  A    between atoms: _167  and  _168
REMARK   72  A    between atoms: _172  and  _174
REMARK   73  A    between atoms: _174  and  _175
REMARK   74  A    between atoms: _174  and  _177
REMARK   75  A    between atoms: _180  and  _182
REMARK   76  A    between atoms: _182  and  _183
REMARK   77  A    between atoms: _182  and  _185
REMARK   78  A    between atoms: _185  and  _186
REMARK   79  A    between atoms: _189  and  _191
REMARK   80  A    between atoms: _191  and  _192
REMARK   81  A    between atoms: _191  and  _194
REMARK   82  A    between atoms: _194  and  _195
REMARK   83  A    between atoms: _198  and  _200
REMARK   84  A    between atoms: _200  and  _201
REMARK   85  A    between atoms: _200  and  _203
REMARK   86  A    between atoms: _203  and  _204
REMARK   87  A    between atoms: _204  and  _205
REMARK   88  A    between atoms: _210  and  _212
REMARK   89  A    between atoms: _212  and  _213
REMARK   90  A    between atoms: _212  and  _215
REMARK   91  A    between atoms: _215  and  _216
REMARK   92  A    between atoms: _219  and  _221
REMARK   93  A    between atoms: _221  and  _222
REMARK   94  A    between atoms: _221  and  _224
REMARK   95  A    between atoms: _224  and  _225
REMARK   96  A    between atoms: _225  and  _226
REMARK   97  A    between atoms: _226  and  _227
REMARK   98  A    between atoms: _236  and  _238
REMARK   99  A    between atoms: _238  and  _239
REMARK  100  A    between atoms: _238  and  _241
REMARK  101  A    between atoms: _241  and  _242
REMARK  102  A    between atoms: _242  and  _243
REMARK  103  A    between atoms: _243  and  _244
REMARK  104  A    between atoms: _253  and  _255
REMARK  105  A    between atoms: _255  and  _256
REMARK  106  A    between atoms: _255  and  _258
REMARK  107  A    between atoms: _258  and  _259
REMARK  108  A    between atoms: _259  and  _260
REMARK  109  A    between atoms: _263  and  _265
REMARK  110  A    between atoms: _265  and  _266
REMARK  111  A    between atoms: _265  and  _268
REMARK  112  A    between atoms: _268  and  _269
REMARK  113  A    between atoms: _272  and  _274
REMARK  114  A    between atoms: _274  and  _275
REMARK  115  A    between atoms: _274  and  _277
REMARK  116  A    between atoms: _277  and  _278
REMARK  117  A    between atoms: _278  and  _279
REMARK  118  A    between atoms: _282  and  _284
REMARK  119  A    between atoms: _284  and  _285
REMARK  120  A    between atoms: _284  and  _287
REMARK  121  A    between atoms: _287  and  _288
REMARK  122  A    between atoms: _291  and  _293
REMARK  123  A    between atoms: _293  and  _294
REMARK  124  A    between atoms: _293  and  _296
REMARK  125  A    between atoms: _296  and  _297
REMARK  126  A    between atoms: _297  and  _298
REMARK  127  A    between atoms: _303  and  _305
REMARK  128  A    between atoms: _305  and  _306
REMARK  129  A    between atoms: _305  and  _308
REMARK  130  A    between atoms: _308  and  _309
REMARK  131  A    between atoms: _311  and  _313
REMARK  132  A    between atoms: _313  and  _314
REMARK  133  A    between atoms: _313  and  _316
REMARK  134  A    between atoms: _316  and  _317
REMARK  135  A    between atoms: _320  and  _322
REMARK  136  A    between atoms: _322  and  _323
REMARK  137  A    between atoms: _322  and  _325
REMARK  138  A    between atoms: _325  and  _326
REMARK  139  A    between atoms: _326  and  _327
REMARK  140  A    between atoms: _327  and  _328
REMARK  141  A    between atoms: _337  and  _339
REMARK  142  A    between atoms: _339  and  _340
REMARK  143  A    between atoms: _339  and  _342
REMARK  144  A    between atoms: _342  and  _343
REMARK  145  A    between atoms: _343  and  _344
REMARK  146  A    between atoms: _346  and  _348
REMARK  147  A    between atoms: _348  and  _349
REMARK  148  A    between atoms: _348  and  _351
REMARK  149  A    between atoms: _351  and  _352
REMARK  150  A    between atoms: _355  and  _357
REMARK  151  A    between atoms: _357  and  _358
REMARK  152  A    between atoms: _357  and  _360
REMARK  153  A    between atoms: _360  and  _361
REMARK  154  A    between atoms: _364  and  _366
REMARK  155  A    between atoms: _366  and  _367
REMARK  156  A    between atoms: _366  and  _369
REMARK  157  A    between atoms: _369  and  _370
REMARK  158  A    between atoms: _370  and  _371
REMARK  159  A    between atoms: _373  and  _375
REMARK  160  A    between atoms: _375  and  _376
REMARK  161  A    between atoms: _375  and  _378
REMARK  162  A    between atoms: _378  and  _379
REMARK  163  A    between atoms: _382  and  _384
REMARK  164  A    between atoms: _384  and  _385
REMARK  165  A    between atoms: _384  and  _387
REMARK  166  A    between atoms: _387  and  _388
REMARK  167  A    between atoms: _388  and  _389
REMARK  168  A    between atoms: _392  and  _394
REMARK  169  A    between atoms: _394  and  _395
REMARK  170  A    between atoms: _394  and  _397
REMARK  171  A    between atoms: _397  and  _398
REMARK  172  A    between atoms: _404  and  _406
REMARK  173  A    between atoms: _406  and  _407
REMARK  174  A    between atoms: _411  and  _412
REMARK  175  A    between atoms: _417  and  _419
REMARK  176  A    between atoms: _419  and  _420
REMARK  177  A    between atoms: _419  and  _422
REMARK  178  A    between atoms: _422  and  _423
REMARK  179  A    between atoms: _423  and  _424
REMARK  180  A    between atoms: _424  and  _425
REMARK  181  A    between atoms: _434  and  _436
REMARK  182  A    between atoms: _436  and  _437
REMARK  183  A    between atoms: _439  and  _441
REMARK  184  A    between atoms: _441  and  _442
REMARK  185  A    between atoms: _441  and  _444
REMARK  186  A    between atoms: _444  and  _445
REMARK  187  A    between atoms: _445  and  _446
REMARK  188  A    between atoms: _449  and  _451
REMARK  189  A    between atoms: _451  and  _452
REMARK  190  A    between atoms: _451  and  _454
REMARK  191  A    between atoms: _454  and  _455
REMARK  192  A    between atoms: _458  and  _460
REMARK  193  A    between atoms: _460  and  _461
REMARK  194  A    between atoms: _460  and  _463
REMARK  195  A    between atoms: _463  and  _464
REMARK  196  A    between atoms: _464  and  _465
REMARK  197  A    between atoms: _465  and  _466
REMARK  198  A    between atoms: _466  and  _467
REMARK  199  A    between atoms: _471  and  _473
REMARK  200  A    between atoms: _473  and  _474
REMARK  201  A    between atoms: _473  and  _476
REMARK  202  A    between atoms: _476  and  _477
REMARK  203  A    between atoms: _477  and  _478
REMARK  204  A    between atoms: _481  and  _483
REMARK  205  A    between atoms: _483  and  _484
REMARK  206  A    between atoms: _483  and  _486
REMARK  207  A    between atoms: _486  and  _487
REMARK  208  A    between atoms: _487  and  _488
REMARK  209  A    between atoms: _488  and  _489
REMARK  210  A    between atoms: _489  and  _490
REMARK  211  A    between atoms: _494  and  _496
REMARK  212  A    between atoms: _496  and  _497
REMARK  213  A    between atoms: _496  and  _499
REMARK  214  A    between atoms: _499  and  _500
REMARK  215  A    between atoms: _500  and  _501
REMARK  216  A    between atoms: _504  and  _506
REMARK  217  A    between atoms: _506  and  _507
REMARK  218  A    between atoms: _506  and  _509
REMARK  219  A    between atoms: _509  and  _510
REMARK  220  A    between atoms: _515  and  _517
REMARK  221  A    between atoms: _517  and  _518
REMARK  222  A    between atoms: _517  and  _520
REMARK  223  A    between atoms: _520  and  _521
REMARK  224  A    between atoms: _524  and  _526
REMARK  225  A    between atoms: _526  and  _527
REMARK  226  A    between atoms: _526  and  _529
REMARK  227  A    between atoms: _529  and  _530
REMARK  228  A    between atoms: _533  and  _535
REMARK  229  A    between atoms: _535  and  _536
REMARK  230  A    between atoms: _535  and  _538
REMARK  231  A    between atoms: _538  and  _539
REMARK  232  A    between atoms: _539  and  _540
REMARK  233  A    between atoms: _542  and  _544
REMARK  234  A    between atoms: _544  and  _545
REMARK  235  A    between atoms: _544  and  _547
REMARK  236  A    between atoms: _547  and  _548
REMARK  237  A    between atoms: _548  and  _549
REMARK  238  A    between atoms: _549  and  _550
REMARK  239  A    between atoms: _550  and  _551
REMARK  240  A    between atoms: _555  and  _557
REMARK  241  A    between atoms: _557  and  _558
REMARK  242  A    between atoms: _557  and  _560
REMARK  243  A    between atoms: _560  and  _561
REMARK  244  A    between atoms: _564  and  _566
REMARK  245  A    between atoms: _566  and  _567
REMARK  246  A    between atoms: _570  and  _572
REMARK  247  A    between atoms: _572  and  _573
REMARK  248  A    between atoms: _572  and  _575
REMARK  249  A    between atoms: _575  and  _576
REMARK  250  A    between atoms: _579  and  _581
REMARK  251  A    between atoms: _581  and  _582
REMARK  252  A    between atoms: _581  and  _584
REMARK  253  A    between atoms: _584  and  _585
REMARK  254  A    between atoms: _591  and  _593
REMARK  255  A    between atoms: _593  and  _594
REMARK  256  A    between atoms: _596  and  _598
REMARK  257  A    between atoms: _598  and  _599
REMARK  258  A    between atoms: _598  and  _601
REMARK  259  A    between atoms: _601  and  _602
REMARK                            x       y       z     vdW  Elec       q    Type
REMARK                         _______ _______ _______ _____ _____    ______ ____
ROOT
ATOM      1  O   HOH     1       7.084 -28.305  -2.930  0.00  0.00    +0.000 OA
ENDROOT
TORSDOF 0
REMARK  Name = ../refined-set-2016/4c2v/4c2v_pocket.pdb
REMARK  259 active torsions:
REMARK  status: ('A' for Active; 'I' for Inactive)
REMARK    1  A    between atoms: _1  and  _3
REMARK    2  A    between atoms: _3  and  _4
REMARK    3  A    between atoms: _3  and  _6
REMARK    4  A    between atoms: _6  and  _7
REMARK    5  A    between atoms: _7  and  _8
REMARK    6  A    between atoms: _8  and  _9
REMARK    7  A    between atoms: _19  and  _20
REMARK    8  A    between atoms: _25  and  _27
REMARK    9  A    between atoms: _27  and  _28
REMARK   10  A    between atoms: _27  and  _30
REMARK   11  A    between atoms: _30  and  _31
REMARK   12  A    between atoms: _34  and  _36
REMARK   13  A    between atoms: _36  and  _37
REMARK   14  A    between atoms: _39  and  _41
REMARK   15  A    between atoms: _41  and  _42
REMARK   16  A    between atoms: _41  and  _44
REMARK   17  A    between atoms: _44  and  _45
REMARK   18  A    between atoms: _45  and  _46
REMARK   19  A    between atoms: _46  and  _47
REMARK   20  A    between atoms: _47  and  _48
REMARK   21  A    between atoms: _52  and  _54
REMARK   22  A    between atoms: _54  and  _55
REMARK   23  A    between atoms: _57  and  _59
REMARK   24  A    between atoms: _59  and  _60
REMARK   25  A    between atoms: _59  and  _62
REMARK   26  A    between atoms: _62  and  _63
REMARK   27  A    between atoms: _63  and  _64
REMARK   28  A    between atoms: _64  and  _65
REMARK   29  A    between atoms: _65  and  _66
REMARK   30  A    between atoms: _70  and  _72
REMARK   31  A    between atoms: _72  and  _73
REMARK   32  A    between atoms: _72  and  _75
REMARK   33  A    between atoms: _75  and  _76
REMARK   34  A    between atoms: _82  and  _84
REMARK   35  A    between atoms: _84  and  _85
REMARK   36  A    between atoms: _87  and  _89
REMARK   37  A    between atoms: _89  and  _90
REMARK   38  A    between atoms: _89  and  _92
REMARK   39  A    between atoms: _92  and  _93
REMARK   40  A    between atoms: _98  and  _100
REMARK   41  A    between atoms: _100  and  _101
REMARK   42  A    between atoms: _100  and  _103
REMARK   43  A    between atoms: _106  and  _108
REMARK   44  A    between atoms: _108  and  _109
REMARK   45  A    between atoms: _108  and  _111
REMARK   46  A    between atoms: _111  and  _112
REMARK   47  A    between atoms: _117  and  _118
REMARK   48  A    between atoms: _120  and  _122
REMARK   49  A    between atoms: _122  and  _123
REMARK   50  A    between atoms: _122  and  _125
REMARK   51  A    between atoms: _125  and  _126
REMARK   52  A    between atoms: _129  and  _131
REMARK   53  A    between atoms: _131  and  _132
REMARK   54  A    between atoms: _135  and  _137
REMARK   55  A    between atoms: _137  and  _138
REMARK   56  A    between atoms: _137  and  _140
REMARK   57  A    between atoms: _140  and  _141
REMARK   58  A    between atoms: _141  and  _142
REMARK   59  A    between atoms: _144  and  _146
REMARK   60  A    between atoms: _146  and  _147
REMARK   61  A    between atoms: _150  and  _152
REMARK   62  A    between atoms: _152  and  _153
REMARK   63  A    between atoms: _152  and  _155
REMARK   64  A    between atoms: _155  and  _156
REMARK   65  A    between atoms: _159  and  _161
REMARK   66  A    between atoms: _161  and  _162
REMARK   67  A    between atoms: _161  and  _164
REMARK   68  A    between atoms: _164  and  _165
REMARK   69  A    between atoms: _165  and  _166
REMARK   70  A    between atoms: _166  and  _167
REMARK   71  A    between atoms: _167  and  _168
REMARK   72  A    between atoms: _172  and  _174
REMARK   73  A    between atoms: _174  and  _175
REMARK   74  A    between atoms: _174  and  _177
REMARK   75  A    between atoms: _180  and  _182
REMARK   76  A    between atoms: _182  and  _183
REMARK   77  A    between atoms: _182  and  _185
REMARK   78  A    between atoms: _185  and  _186
REMARK   79  A    between atoms: _189  and  _191
REMARK   80  A    between atoms: _191  and  _192
REMARK   81  A    between atoms: _191  and  _194
REMARK   82  A    between atoms: _194  and  _195
REMARK   83  A    between atoms: _198  and  _200
REMARK   84  A    between atoms: _200  and  _201
REMARK   85  A    between atoms: _200  and  _203
REMARK   86  A    between atoms: _203  and  _204
REMARK   87  A    between atoms: _204  and  _205
REMARK   88  A    between atoms: _210  and  _212
REMARK   89  A    between atoms: _212  and  _213
REMARK   90  A    between atoms: _212  and  _215
REMARK   91  A    between atoms: _215  and  _216
REMARK   92  A    between atoms: _219  and  _221
REMARK   93  A    between atoms: _221  and  _222
REMARK   94  A    between atoms: _221  and  _224
REMARK   95  A    between atoms: _224  and  _225
REMARK   96  A    between atoms: _225  and  _226
REMARK   97  A    between atoms: _226  and  _227
REMARK   98  A    between atoms: _236  and  _238
REMARK   99  A    between atoms: _238  and  _239
REMARK  100  A    between atoms: _238  and  _241
REMARK  101  A    between atoms: _241  and  _242
REMARK  102  A    between atoms: _242  and  _243
REMARK  103  A    between atoms: _243  and  _244
REMARK  104  A    between atoms: _253  and  _255
REMARK  105  A    between atoms: _255  and  _256
REMARK  106  A    between atoms: _255  and  _258
REMARK  107  A    between atoms: _258  and  _259
REMARK  108  A    between atoms: _259  and  _260
REMARK  109  A    between atoms: _263  and  _265
REMARK  110  A    between atoms: _265  and  _266
REMARK  111  A    between atoms: _265  and  _268
REMARK  112  A    between atoms: _268  and  _269
REMARK  113  A    between atoms: _272  and  _274
REMARK  114  A    between atoms: _274  and  _275
REMARK  115  A    between atoms: _274  and  _277
REMARK  116  A    between atoms: _277  and  _278
REMARK  117  A    between atoms: _278  and  _279
REMARK  118  A    between atoms: _282  and  _284
REMARK  119  A    between atoms: _284  and  _285
REMARK  120  A    between atoms: _284  and  _287
REMARK  121  A    between atoms: _287  and  _288
REMARK  122  A    between atoms: _291  and  _293
REMARK  123  A    between atoms: _293  and  _294
REMARK  124  A    between atoms: _293  and  _296
REMARK  125  A    between atoms: _296  and  _297
REMARK  126  A    between atoms: _297  and  _298
REMARK  127  A    between atoms: _303  and  _305
REMARK  128  A    between atoms: _305  and  _306
REMARK  129  A    between atoms: _305  and  _308
REMARK  130  A    between atoms: _308  and  _309
REMARK  131  A    between atoms: _311  and  _313
REMARK  132  A    between atoms: _313  and  _314
REMARK  133  A    between atoms: _313  and  _316
REMARK  134  A    between atoms: _316  and  _317
REMARK  135  A    between atoms: _320  and  _322
REMARK  136  A    between atoms: _322  and  _323
REMARK  137  A    between atoms: _322  and  _325
REMARK  138  A    between atoms: _325  and  _326
REMARK  139  A    between atoms: _326  and  _327
REMARK  140  A    between atoms: _327  and  _328
REMARK  141  A    between atoms: _337  and  _339
REMARK  142  A    between atoms: _339  and  _340
REMARK  143  A    between atoms: _339  and  _342
REMARK  144  A    between atoms: _342  and  _343
REMARK  145  A    between atoms: _343  and  _344
REMARK  146  A    between atoms: _346  and  _348
REMARK  147  A    between atoms: _348  and  _349
REMARK  148  A    between atoms: _348  and  _351
REMARK  149  A    between atoms: _351  and  _352
REMARK  150  A    between atoms: _355  and  _357
REMARK  151  A    between atoms: _357  and  _358
REMARK  152  A    between atoms: _357  and  _360
REMARK  153  A    between atoms: _360  and  _361
REMARK  154  A    between atoms: _364  and  _366
REMARK  155  A    between atoms: _366  and  _367
REMARK  156  A    between atoms: _366  and  _369
REMARK  157  A    between atoms: _369  and  _370
REMARK  158  A    between atoms: _370  and  _371
REMARK  159  A    between atoms: _373  and  _375
REMARK  160  A    between atoms: _375  and  _376
REMARK  161  A    between atoms: _375  and  _378
REMARK  162  A    between atoms: _378  and  _379
REMARK  163  A    between atoms: _382  and  _384
REMARK  164  A    between atoms: _384  and  _385
REMARK  165  A    between atoms: _384  and  _387
REMARK  166  A    between atoms: _387  and  _388
REMARK  167  A    between atoms: _388  and  _389
REMARK  168  A    between atoms: _392  and  _394
REMARK  169  A    between atoms: _394  and  _395
REMARK  170  A    between atoms: _394  and  _397
REMARK  171  A    between atoms: _397  and  _398
REMARK  172  A    between atoms: _404  and  _406
REMARK  173  A    between atoms: _406  and  _407
REMARK  174  A    between atoms: _411  and  _412
REMARK  175  A    between atoms: _417  and  _419
REMARK  176  A    between atoms: _419  and  _420
REMARK  177  A    between atoms: _419  and  _422
REMARK  178  A    between atoms: _422  and  _423
REMARK  179  A    between atoms: _423  and  _424
REMARK  180  A    between atoms: _424  and  _425
REMARK  181  A    between atoms: _434  and  _436
REMARK  182  A    between atoms: _436  and  _437
REMARK  183  A    between atoms: _439  and  _441
REMARK  184  A    between atoms: _441  and  _442
REMARK  185  A    between atoms: _441  and  _444
REMARK  186  A    between atoms: _444  and  _445
REMARK  187  A    between atoms: _445  and  _446
REMARK  188  A    between atoms: _449  and  _451
REMARK  189  A    between atoms: _451  and  _452
REMARK  190  A    between atoms: _451  and  _454
REMARK  191  A    between atoms: _454  and  _455
REMARK  192  A    between atoms: _458  and  _460
REMARK  193  A    between atoms: _460  and  _461
REMARK  194  A    between atoms: _460  and  _463
REMARK  195  A    between atoms: _463  and  _464
REMARK  196  A    between atoms: _464  and  _465
REMARK  197  A    between atoms: _465  and  _466
REMARK  198  A    between atoms: _466  and  _467
REMARK  199  A    between atoms: _471  and  _473
REMARK  200  A    between atoms: _473  and  _474
REMARK  201  A    between atoms: _473  and  _476
REMARK  202  A    between atoms: _476  and  _477
REMARK  203  A    between atoms: _477  and  _478
REMARK  204  A    between atoms: _481  and  _483
REMARK  205  A    between atoms: _483  and  _484
REMARK  206  A    between atoms: _483  and  _486
REMARK  207  A    between atoms: _486  and  _487
REMARK  208  A    between atoms: _487  and  _488
REMARK  209  A    between atoms: _488  and  _489
REMARK  210  A    between atoms: _489  and  _490
REMARK  211  A    between atoms: _494  and  _496
REMARK  212  A    between atoms: _496  and  _497
REMARK  213  A    between atoms: _496  and  _499
REMARK  214  A    between atoms: _499  and  _500
REMARK  215  A    between atoms: _500  and  _501
REMARK  216  A    between atoms: _504  and  _506
REMARK  217  A    between atoms: _506  and  _507
REMARK  218  A    between atoms: _506  and  _509
REMARK  219  A    between atoms: _509  and  _510
REMARK  220  A    between atoms: _515  and  _517
REMARK  221  A    between atoms: _517  and  _518
REMARK  222  A    between atoms: _517  and  _520
REMARK  223  A    between atoms: _520  and  _521
REMARK  224  A    between atoms: _524  and  _526
REMARK  225  A    between atoms: _526  and  _527
REMARK  226  A    between atoms: _526  and  _529
REMARK  227  A    between atoms: _529  and  _530
REMARK  228  A    between atoms: _533  and  _535
REMARK  229  A    between atoms: _535  and  _536
REMARK  230  A    between atoms: _535  and  _538
REMARK  231  A    between atoms: _538  and  _539
REMARK  232  A    between atoms: _539  and  _540
REMARK  233  A    between atoms: _542  and  _544
REMARK  234  A    between atoms: _544  and  _545
REMARK  235  A    between atoms: _544  and  _547
REMARK  236  A    between atoms: _547  and  _548
REMARK  237  A    between atoms: _548  and  _549
REMARK  238  A    between atoms: _549  and  _550
REMARK  239  A    between atoms: _550  and  _551
REMARK  240  A    between atoms: _555  and  _557
REMARK  241  A    between atoms: _557  and  _558
REMARK  242  A    between atoms: _557  and  _560
REMARK  243  A    between atoms: _560  and  _561
REMARK  244  A    between atoms: _564  and  _566
REMARK  245  A    between atoms: _566  and  _567
REMARK  246  A    between atoms: _570  and  _572
REMARK  247  A    between atoms: _572  and  _573
REMARK  248  A    between atoms: _572  and  _575
REMARK  249  A    between atoms: _575  and  _576
REMARK  250  A    between atoms: _579  and  _581
REMARK  251  A    between atoms: _581  and  _582
REMARK  252  A    between atoms: _581  and  _584
REMARK  253  A    between atoms: _584  and  _585
REMARK  254  A    between atoms: _591  and  _593
REMARK  255  A    between atoms: _593  and  _594
REMARK  256  A    between atoms: _596  and  _598
REMARK  257  A    between atoms: _598  and  _599
REMARK  258  A    between atoms: _598  and  _601
REMARK  259  A    between atoms: _601  and  _602
REMARK                            x       y       z     vdW  Elec       q    Type
REMARK                         _______ _______ _______ _____ _____    ______ ____
ROOT
ATOM      1  O   HOH     1       4.650 -29.545   1.562  0.00  0.00    +0.000 OA
ENDROOT
TORSDOF 0
REMARK  Name = ../refined-set-2016/4c2v/4c2v_pocket.pdb
REMARK  259 active torsions:
REMARK  status: ('A' for Active; 'I' for Inactive)
REMARK    1  A    between atoms: _1  and  _3
REMARK    2  A    between atoms: _3  and  _4
REMARK    3  A    between atoms: _3  and  _6
REMARK    4  A    between atoms: _6  and  _7
REMARK    5  A    between atoms: _7  and  _8
REMARK    6  A    between atoms: _8  and  _9
REMARK    7  A    between atoms: _19  and  _20
REMARK    8  A    between atoms: _25  and  _27
REMARK    9  A    between atoms: _27  and  _28
REMARK   10  A    between atoms: _27  and  _30
REMARK   11  A    between atoms: _30  and  _31
REMARK   12  A    between atoms: _34  and  _36
REMARK   13  A    between atoms: _36  and  _37
REMARK   14  A    between atoms: _39  and  _41
REMARK   15  A    between atoms: _41  and  _42
REMARK   16  A    between atoms: _41  and  _44
REMARK   17  A    between atoms: _44  and  _45
REMARK   18  A    between atoms: _45  and  _46
REMARK   19  A    between atoms: _46  and  _47
REMARK   20  A    between atoms: _47  and  _48
REMARK   21  A    between atoms: _52  and  _54
REMARK   22  A    between atoms: _54  and  _55
REMARK   23  A    between atoms: _57  and  _59
REMARK   24  A    between atoms: _59  and  _60
REMARK   25  A    between atoms: _59  and  _62
REMARK   26  A    between atoms: _62  and  _63
REMARK   27  A    between atoms: _63  and  _64
REMARK   28  A    between atoms: _64  and  _65
REMARK   29  A    between atoms: _65  and  _66
REMARK   30  A    between atoms: _70  and  _72
REMARK   31  A    between atoms: _72  and  _73
REMARK   32  A    between atoms: _72  and  _75
REMARK   33  A    between atoms: _75  and  _76
REMARK   34  A    between atoms: _82  and  _84
REMARK   35  A    between atoms: _84  and  _85
REMARK   36  A    between atoms: _87  and  _89
REMARK   37  A    between atoms: _89  and  _90
REMARK   38  A    between atoms: _89  and  _92
REMARK   39  A    between atoms: _92  and  _93
REMARK   40  A    between atoms: _98  and  _100
REMARK   41  A    between atoms: _100  and  _101
REMARK   42  A    between atoms: _100  and  _103
REMARK   43  A    between atoms: _106  and  _108
REMARK   44  A    between atoms: _108  and  _109
REMARK   45  A    between atoms: _108  and  _111
REMARK   46  A    between atoms: _111  and  _112
REMARK   47  A    between atoms: _117  and  _118
REMARK   48  A    between atoms: _120  and  _122
REMARK   49  A    between atoms: _122  and  _123
REMARK   50  A    between atoms: _122  and  _125
REMARK   51  A    between atoms: _125  and  _126
REMARK   52  A    between atoms: _129  and  _131
REMARK   53  A    between atoms: _131  and  _132
REMARK   54  A    between atoms: _135  and  _137
REMARK   55  A    between atoms: _137  and  _138
REMARK   56  A    between atoms: _137  and  _140
REMARK   57  A    between atoms: _140  and  _141
REMARK   58  A    between atoms: _141  and  _142
REMARK   59  A    between atoms: _144  and  _146
REMARK   60  A    between atoms: _146  and  _147
REMARK   61  A    between atoms: _150  and  _152
REMARK   62  A    between atoms: _152  and  _153
REMARK   63  A    between atoms: _152  and  _155
REMARK   64  A    between atoms: _155  and  _156
REMARK   65  A    between atoms: _159  and  _161
REMARK   66  A    between atoms: _161  and  _162
REMARK   67  A    between atoms: _161  and  _164
REMARK   68  A    between atoms: _164  and  _165
REMARK   69  A    between atoms: _165  and  _166
REMARK   70  A    between atoms: _166  and  _167
REMARK   71  A    between atoms: _167  and  _168
REMARK   72  A    between atoms: _172  and  _174
REMARK   73  A    between atoms: _174  and  _175
REMARK   74  A    between atoms: _174  and  _177
REMARK   75  A    between atoms: _180  and  _182
REMARK   76  A    between atoms: _182  and  _183
REMARK   77  A    between atoms: _182  and  _185
REMARK   78  A    between atoms: _185  and  _186
REMARK   79  A    between atoms: _189  and  _191
REMARK   80  A    between atoms: _191  and  _192
REMARK   81  A    between atoms: _191  and  _194
REMARK   82  A    between atoms: _194  and  _195
REMARK   83  A    between atoms: _198  and  _200
REMARK   84  A    between atoms: _200  and  _201
REMARK   85  A    between atoms: _200  and  _203
REMARK   86  A    between atoms: _203  and  _204
REMARK   87  A    between atoms: _204  and  _205
REMARK   88  A    between atoms: _210  and  _212
REMARK   89  A    between atoms: _212  and  _213
REMARK   90  A    between atoms: _212  and  _215
REMARK   91  A    between atoms: _215  and  _216
REMARK   92  A    between atoms: _219  and  _221
REMARK   93  A    between atoms: _221  and  _222
REMARK   94  A    between atoms: _221  and  _224
REMARK   95  A    between atoms: _224  and  _225
REMARK   96  A    between atoms: _225  and  _226
REMARK   97  A    between atoms: _226  and  _227
REMARK   98  A    between atoms: _236  and  _238
REMARK   99  A    between atoms: _238  and  _239
REMARK  100  A    between atoms: _238  and  _241
REMARK  101  A    between atoms: _241  and  _242
REMARK  102  A    between atoms: _242  and  _243
REMARK  103  A    between atoms: _243  and  _244
REMARK  104  A    between atoms: _253  and  _255
REMARK  105  A    between atoms: _255  and  _256
REMARK  106  A    between atoms: _255  and  _258
REMARK  107  A    between atoms: _258  and  _259
REMARK  108  A    between atoms: _259  and  _260
REMARK  109  A    between atoms: _263  and  _265
REMARK  110  A    between atoms: _265  and  _266
REMARK  111  A    between atoms: _265  and  _268
REMARK  112  A    between atoms: _268  and  _269
REMARK  113  A    between atoms: _272  and  _274
REMARK  114  A    between atoms: _274  and  _275
REMARK  115  A    between atoms: _274  and  _277
REMARK  116  A    between atoms: _277  and  _278
REMARK  117  A    between atoms: _278  and  _279
REMARK  118  A    between atoms: _282  and  _284
REMARK  119  A    between atoms: _284  and  _285
REMARK  120  A    between atoms: _284  and  _287
REMARK  121  A    between atoms: _287  and  _288
REMARK  122  A    between atoms: _291  and  _293
REMARK  123  A    between atoms: _293  and  _294
REMARK  124  A    between atoms: _293  and  _296
REMARK  125  A    between atoms: _296  and  _297
REMARK  126  A    between atoms: _297  and  _298
REMARK  127  A    between atoms: _303  and  _305
REMARK  128  A    between atoms: _305  and  _306
REMARK  129  A    between atoms: _305  and  _308
REMARK  130  A    between atoms: _308  and  _309
REMARK  131  A    between atoms: _311  and  _313
REMARK  132  A    between atoms: _313  and  _314
REMARK  133  A    between atoms: _313  and  _316
REMARK  134  A    between atoms: _316  and  _317
REMARK  135  A    between atoms: _320  and  _322
REMARK  136  A    between atoms: _322  and  _323
REMARK  137  A    between atoms: _322  and  _325
REMARK  138  A    between atoms: _325  and  _326
REMARK  139  A    between atoms: _326  and  _327
REMARK  140  A    between atoms: _327  and  _328
REMARK  141  A    between atoms: _337  and  _339
REMARK  142  A    between atoms: _339  and  _340
REMARK  143  A    between atoms: _339  and  _342
REMARK  144  A    between atoms: _342  and  _343
REMARK  145  A    between atoms: _343  and  _344
REMARK  146  A    between atoms: _346  and  _348
REMARK  147  A    between atoms: _348  and  _349
REMARK  148  A    between atoms: _348  and  _351
REMARK  149  A    between atoms: _351  and  _352
REMARK  150  A    between atoms: _355  and  _357
REMARK  151  A    between atoms: _357  and  _358
REMARK  152  A    between atoms: _357  and  _360
REMARK  153  A    between atoms: _360  and  _361
REMARK  154  A    between atoms: _364  and  _366
REMARK  155  A    between atoms: _366  and  _367
REMARK  156  A    between atoms: _366  and  _369
REMARK  157  A    between atoms: _369  and  _370
REMARK  158  A    between atoms: _370  and  _371
REMARK  159  A    between atoms: _373  and  _375
REMARK  160  A    between atoms: _375  and  _376
REMARK  161  A    between atoms: _375  and  _378
REMARK  162  A    between atoms: _378  and  _379
REMARK  163  A    between atoms: _382  and  _384
REMARK  164  A    between atoms: _384  and  _385
REMARK  165  A    between atoms: _384  and  _387
REMARK  166  A    between atoms: _387  and  _388
REMARK  167  A    between atoms: _388  and  _389
REMARK  168  A    between atoms: _392  and  _394
REMARK  169  A    between atoms: _394  and  _395
REMARK  170  A    between atoms: _394  and  _397
REMARK  171  A    between atoms: _397  and  _398
REMARK  172  A    between atoms: _404  and  _406
REMARK  173  A    between atoms: _406  and  _407
REMARK  174  A    between atoms: _411  and  _412
REMARK  175  A    between atoms: _417  and  _419
REMARK  176  A    between atoms: _419  and  _420
REMARK  177  A    between atoms: _419  and  _422
REMARK  178  A    between atoms: _422  and  _423
REMARK  179  A    between atoms: _423  and  _424
REMARK  180  A    between atoms: _424  and  _425
REMARK  181  A    between atoms: _434  and  _436
REMARK  182  A    between atoms: _436  and  _437
REMARK  183  A    between atoms: _439  and  _441
REMARK  184  A    between atoms: _441  and  _442
REMARK  185  A    between atoms: _441  and  _444
REMARK  186  A    between atoms: _444  and  _445
REMARK  187  A    between atoms: _445  and  _446
REMARK  188  A    between atoms: _449  and  _451
REMARK  189  A    between atoms: _451  and  _452
REMARK  190  A    between atoms: _451  and  _454
REMARK  191  A    between atoms: _454  and  _455
REMARK  192  A    between atoms: _458  and  _460
REMARK  193  A    between atoms: _460  and  _461
REMARK  194  A    between atoms: _460  and  _463
REMARK  195  A    between atoms: _463  and  _464
REMARK  196  A    between atoms: _464  and  _465
REMARK  197  A    between atoms: _465  and  _466
REMARK  198  A    between atoms: _466  and  _467
REMARK  199  A    between atoms: _471  and  _473
REMARK  200  A    between atoms: _473  and  _474
REMARK  201  A    between atoms: _473  and  _476
REMARK  202  A    between atoms: _476  and  _477
REMARK  203  A    between atoms: _477  and  _478
REMARK  204  A    between atoms: _481  and  _483
REMARK  205  A    between atoms: _483  and  _484
REMARK  206  A    between atoms: _483  and  _486
REMARK  207  A    between atoms: _486  and  _487
REMARK  208  A    between atoms: _487  and  _488
REMARK  209  A    between atoms: _488  and  _489
REMARK  210  A    between atoms: _489  and  _490
REMARK  211  A    between atoms: _494  and  _496
REMARK  212  A    between atoms: _496  and  _497
REMARK  213  A    between atoms: _496  and  _499
REMARK  214  A    between atoms: _499  and  _500
REMARK  215  A    between atoms: _500  and  _501
REMARK  216  A    between atoms: _504  and  _506
REMARK  217  A    between atoms: _506  and  _507
REMARK  218  A    between atoms: _506  and  _509
REMARK  219  A    between atoms: _509  and  _510
REMARK  220  A    between atoms: _515  and  _517
REMARK  221  A    between atoms: _517  and  _518
REMARK  222  A    between atoms: _517  and  _520
REMARK  223  A    between atoms: _520  and  _521
REMARK  224  A    between atoms: _524  and  _526
REMARK  225  A    between atoms: _526  and  _527
REMARK  226  A    between atoms: _526  and  _529
REMARK  227  A    between atoms: _529  and  _530
REMARK  228  A    between atoms: _533  and  _535
REMARK  229  A    between atoms: _535  and  _536
REMARK  230  A    between atoms: _535  and  _538
REMARK  231  A    between atoms: _538  and  _539
REMARK  232  A    between atoms: _539  and  _540
REMARK  233  A    between atoms: _542  and  _544
REMARK  234  A    between atoms: _544  and  _545
REMARK  235  A    between atoms: _544  and  _547
REMARK  236  A    between atoms: _547  and  _548
REMARK  237  A    between atoms: _548  and  _549
REMARK  238  A    between atoms: _549  and  _550
REMARK  239  A    between atoms: _550  and  _551
REMARK  240  A    between atoms: _555  and  _557
REMARK  241  A    between atoms: _557  and  _558
REMARK  242  A    between atoms: _557  and  _560
REMARK  243  A    between atoms: _560  and  _561
REMARK  244  A    between atoms: _564  and  _566
REMARK  245  A    between atoms: _566  and  _567
REMARK  246  A    between atoms: _570  and  _572
REMARK  247  A    between atoms: _572  and  _573
REMARK  248  A    between atoms: _572  and  _575
REMARK  249  A    between atoms: _575  and  _576
REMARK  250  A    between atoms: _579  and  _581
REMARK  251  A    between atoms: _581  and  _582
REMARK  252  A    between atoms: _581  and  _584
REMARK  253  A    between atoms: _584  and  _585
REMARK  254  A    between atoms: _591  and  _593
REMARK  255  A    between atoms: _593  and  _594
REMARK  256  A    between atoms: _596  and  _598
REMARK  257  A    between atoms: _598  and  _599
REMARK  258  A    between atoms: _598  and  _601
REMARK  259  A    between atoms: _601  and  _602
REMARK                            x       y       z     vdW  Elec       q    Type
REMARK                         _______ _______ _______ _____ _____    ______ ____
ROOT
ATOM      1  O   HOH     1      -0.102 -22.087   7.322  0.00  0.00    +0.000 OA
ENDROOT
TORSDOF 0
REMARK  Name = ../refined-set-2016/4c2v/4c2v_pocket.pdb
REMARK  259 active torsions:
REMARK  status: ('A' for Active; 'I' for Inactive)
REMARK    1  A    between atoms: _1  and  _3
REMARK    2  A    between atoms: _3  and  _4
REMARK    3  A    between atoms: _3  and  _6
REMARK    4  A    between atoms: _6  and  _7
REMARK    5  A    between atoms: _7  and  _8
REMARK    6  A    between atoms: _8  and  _9
REMARK    7  A    between atoms: _19  and  _20
REMARK    8  A    between atoms: _25  and  _27
REMARK    9  A    between atoms: _27  and  _28
REMARK   10  A    between atoms: _27  and  _30
REMARK   11  A    between atoms: _30  and  _31
REMARK   12  A    between atoms: _34  and  _36
REMARK   13  A    between atoms: _36  and  _37
REMARK   14  A    between atoms: _39  and  _41
REMARK   15  A    between atoms: _41  and  _42
REMARK   16  A    between atoms: _41  and  _44
REMARK   17  A    between atoms: _44  and  _45
REMARK   18  A    between atoms: _45  and  _46
REMARK   19  A    between atoms: _46  and  _47
REMARK   20  A    between atoms: _47  and  _48
REMARK   21  A    between atoms: _52  and  _54
REMARK   22  A    between atoms: _54  and  _55
REMARK   23  A    between atoms: _57  and  _59
REMARK   24  A    between atoms: _59  and  _60
REMARK   25  A    between atoms: _59  and  _62
REMARK   26  A    between atoms: _62  and  _63
REMARK   27  A    between atoms: _63  and  _64
REMARK   28  A    between atoms: _64  and  _65
REMARK   29  A    between atoms: _65  and  _66
REMARK   30  A    between atoms: _70  and  _72
REMARK   31  A    between atoms: _72  and  _73
REMARK   32  A    between atoms: _72  and  _75
REMARK   33  A    between atoms: _75  and  _76
REMARK   34  A    between atoms: _82  and  _84
REMARK   35  A    between atoms: _84  and  _85
REMARK   36  A    between atoms: _87  and  _89
REMARK   37  A    between atoms: _89  and  _90
REMARK   38  A    between atoms: _89  and  _92
REMARK   39  A    between atoms: _92  and  _93
REMARK   40  A    between atoms: _98  and  _100
REMARK   41  A    between atoms: _100  and  _101
REMARK   42  A    between atoms: _100  and  _103
REMARK   43  A    between atoms: _106  and  _108
REMARK   44  A    between atoms: _108  and  _109
REMARK   45  A    between atoms: _108  and  _111
REMARK   46  A    between atoms: _111  and  _112
REMARK   47  A    between atoms: _117  and  _118
REMARK   48  A    between atoms: _120  and  _122
REMARK   49  A    between atoms: _122  and  _123
REMARK   50  A    between atoms: _122  and  _125
REMARK   51  A    between atoms: _125  and  _126
REMARK   52  A    between atoms: _129  and  _131
REMARK   53  A    between atoms: _131  and  _132
REMARK   54  A    between atoms: _135  and  _137
REMARK   55  A    between atoms: _137  and  _138
REMARK   56  A    between atoms: _137  and  _140
REMARK   57  A    between atoms: _140  and  _141
REMARK   58  A    between atoms: _141  and  _142
REMARK   59  A    between atoms: _144  and  _146
REMARK   60  A    between atoms: _146  and  _147
REMARK   61  A    between atoms: _150  and  _152
REMARK   62  A    between atoms: _152  and  _153
REMARK   63  A    between atoms: _152  and  _155
REMARK   64  A    between atoms: _155  and  _156
REMARK   65  A    between atoms: _159  and  _161
REMARK   66  A    between atoms: _161  and  _162
REMARK   67  A    between atoms: _161  and  _164
REMARK   68  A    between atoms: _164  and  _165
REMARK   69  A    between atoms: _165  and  _166
REMARK   70  A    between atoms: _166  and  _167
REMARK   71  A    between atoms: _167  and  _168
REMARK   72  A    between atoms: _172  and  _174
REMARK   73  A    between atoms: _174  and  _175
REMARK   74  A    between atoms: _174  and  _177
REMARK   75  A    between atoms: _180  and  _182
REMARK   76  A    between atoms: _182  and  _183
REMARK   77  A    between atoms: _182  and  _185
REMARK   78  A    between atoms: _185  and  _186
REMARK   79  A    between atoms: _189  and  _191
REMARK   80  A    between atoms: _191  and  _192
REMARK   81  A    between atoms: _191  and  _194
REMARK   82  A    between atoms: _194  and  _195
REMARK   83  A    between atoms: _198  and  _200
REMARK   84  A    between atoms: _200  and  _201
REMARK   85  A    between atoms: _200  and  _203
REMARK   86  A    between atoms: _203  and  _204
REMARK   87  A    between atoms: _204  and  _205
REMARK   88  A    between atoms: _210  and  _212
REMARK   89  A    between atoms: _212  and  _213
REMARK   90  A    between atoms: _212  and  _215
REMARK   91  A    between atoms: _215  and  _216
REMARK   92  A    between atoms: _219  and  _221
REMARK   93  A    between atoms: _221  and  _222
REMARK   94  A    between atoms: _221  and  _224
REMARK   95  A    between atoms: _224  and  _225
REMARK   96  A    between atoms: _225  and  _226
REMARK   97  A    between atoms: _226  and  _227
REMARK   98  A    between atoms: _236  and  _238
REMARK   99  A    between atoms: _238  and  _239
REMARK  100  A    between atoms: _238  and  _241
REMARK  101  A    between atoms: _241  and  _242
REMARK  102  A    between atoms: _242  and  _243
REMARK  103  A    between atoms: _243  and  _244
REMARK  104  A    between atoms: _253  and  _255
REMARK  105  A    between atoms: _255  and  _256
REMARK  106  A    between atoms: _255  and  _258
REMARK  107  A    between atoms: _258  and  _259
REMARK  108  A    between atoms: _259  and  _260
REMARK  109  A    between atoms: _263  and  _265
REMARK  110  A    between atoms: _265  and  _266
REMARK  111  A    between atoms: _265  and  _268
REMARK  112  A    between atoms: _268  and  _269
REMARK  113  A    between atoms: _272  and  _274
REMARK  114  A    between atoms: _274  and  _275
REMARK  115  A    between atoms: _274  and  _277
REMARK  116  A    between atoms: _277  and  _278
REMARK  117  A    between atoms: _278  and  _279
REMARK  118  A    between atoms: _282  and  _284
REMARK  119  A    between atoms: _284  and  _285
REMARK  120  A    between atoms: _284  and  _287
REMARK  121  A    between atoms: _287  and  _288
REMARK  122  A    between atoms: _291  and  _293
REMARK  123  A    between atoms: _293  and  _294
REMARK  124  A    between atoms: _293  and  _296
REMARK  125  A    between atoms: _296  and  _297
REMARK  126  A    between atoms: _297  and  _298
REMARK  127  A    between atoms: _303  and  _305
REMARK  128  A    between atoms: _305  and  _306
REMARK  129  A    between atoms: _305  and  _308
REMARK  130  A    between atoms: _308  and  _309
REMARK  131  A    between atoms: _311  and  _313
REMARK  132  A    between atoms: _313  and  _314
REMARK  133  A    between atoms: _313  and  _316
REMARK  134  A    between atoms: _316  and  _317
REMARK  135  A    between atoms: _320  and  _322
REMARK  136  A    between atoms: _322  and  _323
REMARK  137  A    between atoms: _322  and  _325
REMARK  138  A    between atoms: _325  and  _326
REMARK  139  A    between atoms: _326  and  _327
REMARK  140  A    between atoms: _327  and  _328
REMARK  141  A    between atoms: _337  and  _339
REMARK  142  A    between atoms: _339  and  _340
REMARK  143  A    between atoms: _339  and  _342
REMARK  144  A    between atoms: _342  and  _343
REMARK  145  A    between atoms: _343  and  _344
REMARK  146  A    between atoms: _346  and  _348
REMARK  147  A    between atoms: _348  and  _349
REMARK  148  A    between atoms: _348  and  _351
REMARK  149  A    between atoms: _351  and  _352
REMARK  150  A    between atoms: _355  and  _357
REMARK  151  A    between atoms: _357  and  _358
REMARK  152  A    between atoms: _357  and  _360
REMARK  153  A    between atoms: _360  and  _361
REMARK  154  A    between atoms: _364  and  _366
REMARK  155  A    between atoms: _366  and  _367
REMARK  156  A    between atoms: _366  and  _369
REMARK  157  A    between atoms: _369  and  _370
REMARK  158  A    between atoms: _370  and  _371
REMARK  159  A    between atoms: _373  and  _375
REMARK  160  A    between atoms: _375  and  _376
REMARK  161  A    between atoms: _375  and  _378
REMARK  162  A    between atoms: _378  and  _379
REMARK  163  A    between atoms: _382  and  _384
REMARK  164  A    between atoms: _384  and  _385
REMARK  165  A    between atoms: _384  and  _387
REMARK  166  A    between atoms: _387  and  _388
REMARK  167  A    between atoms: _388  and  _389
REMARK  168  A    between atoms: _392  and  _394
REMARK  169  A    between atoms: _394  and  _395
REMARK  170  A    between atoms: _394  and  _397
REMARK  171  A    between atoms: _397  and  _398
REMARK  172  A    between atoms: _404  and  _406
REMARK  173  A    between atoms: _406  and  _407
REMARK  174  A    between atoms: _411  and  _412
REMARK  175  A    between atoms: _417  and  _419
REMARK  176  A    between atoms: _419  and  _420
REMARK  177  A    between atoms: _419  and  _422
REMARK  178  A    between atoms: _422  and  _423
REMARK  179  A    between atoms: _423  and  _424
REMARK  180  A    between atoms: _424  and  _425
REMARK  181  A    between atoms: _434  and  _436
REMARK  182  A    between atoms: _436  and  _437
REMARK  183  A    between atoms: _439  and  _441
REMARK  184  A    between atoms: _441  and  _442
REMARK  185  A    between atoms: _441  and  _444
REMARK  186  A    between atoms: _444  and  _445
REMARK  187  A    between atoms: _445  and  _446
REMARK  188  A    between atoms: _449  and  _451
REMARK  189  A    between atoms: _451  and  _452
REMARK  190  A    between atoms: _451  and  _454
REMARK  191  A    between atoms: _454  and  _455
REMARK  192  A    between atoms: _458  and  _460
REMARK  193  A    between atoms: _460  and  _461
REMARK  194  A    between atoms: _460  and  _463
REMARK  195  A    between atoms: _463  and  _464
REMARK  196  A    between atoms: _464  and  _465
REMARK  197  A    between atoms: _465  and  _466
REMARK  198  A    between atoms: _466  and  _467
REMARK  199  A    between atoms: _471  and  _473
REMARK  200  A    between atoms: _473  and  _474
REMARK  201  A    between atoms: _473  and  _476
REMARK  202  A    between atoms: _476  and  _477
REMARK  203  A    between atoms: _477  and  _478
REMARK  204  A    between atoms: _481  and  _483
REMARK  205  A    between atoms: _483  and  _484
REMARK  206  A    between atoms: _483  and  _486
REMARK  207  A    between atoms: _486  and  _487
REMARK  208  A    between atoms: _487  and  _488
REMARK  209  A    between atoms: _488  and  _489
REMARK  210  A    between atoms: _489  and  _490
REMARK  211  A    between atoms: _494  and  _496
REMARK  212  A    between atoms: _496  and  _497
REMARK  213  A    between atoms: _496  and  _499
REMARK  214  A    between atoms: _499  and  _500
REMARK  215  A    between atoms: _500  and  _501
REMARK  216  A    between atoms: _504  and  _506
REMARK  217  A    between atoms: _506  and  _507
REMARK  218  A    between atoms: _506  and  _509
REMARK  219  A    between atoms: _509  and  _510
REMARK  220  A    between atoms: _515  and  _517
REMARK  221  A    between atoms: _517  and  _518
REMARK  222  A    between atoms: _517  and  _520
REMARK  223  A    between atoms: _520  and  _521
REMARK  224  A    between atoms: _524  and  _526
REMARK  225  A    between atoms: _526  and  _527
REMARK  226  A    between atoms: _526  and  _529
REMARK  227  A    between atoms: _529  and  _530
REMARK  228  A    between atoms: _533  and  _535
REMARK  229  A    between atoms: _535  and  _536
REMARK  230  A    between atoms: _535  and  _538
REMARK  231  A    between atoms: _538  and  _539
REMARK  232  A    between atoms: _539  and  _540
REMARK  233  A    between atoms: _542  and  _544
REMARK  234  A    between atoms: _544  and  _545
REMARK  235  A    between atoms: _544  and  _547
REMARK  236  A    between atoms: _547  and  _548
REMARK  237  A    between atoms: _548  and  _549
REMARK  238  A    between atoms: _549  and  _550
REMARK  239  A    between atoms: _550  and  _551
REMARK  240  A    between atoms: _555  and  _557
REMARK  241  A    between atoms: _557  and  _558
REMARK  242  A    between atoms: _557  and  _560
REMARK  243  A    between atoms: _560  and  _561
REMARK  244  A    between atoms: _564  and  _566
REMARK  245  A    between atoms: _566  and  _567
REMARK  246  A    between atoms: _570  and  _572
REMARK  247  A    between atoms: _572  and  _573
REMARK  248  A    between atoms: _572  and  _575
REMARK  249  A    between atoms: _575  and  _576
REMARK  250  A    between atoms: _579  and  _581
REMARK  251  A    between atoms: _581  and  _582
REMARK  252  A    between atoms: _581  and  _584
REMARK  253  A    between atoms: _584  and  _585
REMARK  254  A    between atoms: _591  and  _593
REMARK  255  A    between atoms: _593  and  _594
REMARK  256  A    between atoms: _596  and  _598
REMARK  257  A    between atoms: _598  and  _599
REMARK  258  A    between atoms: _598  and  _601
REMARK  259  A    between atoms: _601  and  _602
REMARK                            x       y       z     vdW  Elec       q    Type
REMARK                         _______ _______ _______ _____ _____    ______ ____
ROOT
ATOM      1  O   HOH     1      17.155 -19.379   8.249  0.00  0.00    +0.000 OA
ENDROOT
TORSDOF 0
REMARK  Name = ../refined-set-2016/4c2v/4c2v_pocket.pdb
REMARK  259 active torsions:
REMARK  status: ('A' for Active; 'I' for Inactive)
REMARK    1  A    between atoms: _1  and  _3
REMARK    2  A    between atoms: _3  and  _4
REMARK    3  A    between atoms: _3  and  _6
REMARK    4  A    between atoms: _6  and  _7
REMARK    5  A    between atoms: _7  and  _8
REMARK    6  A    between atoms: _8  and  _9
REMARK    7  A    between atoms: _19  and  _20
REMARK    8  A    between atoms: _25  and  _27
REMARK    9  A    between atoms: _27  and  _28
REMARK   10  A    between atoms: _27  and  _30
REMARK   11  A    between atoms: _30  and  _31
REMARK   12  A    between atoms: _34  and  _36
REMARK   13  A    between atoms: _36  and  _37
REMARK   14  A    between atoms: _39  and  _41
REMARK   15  A    between atoms: _41  and  _42
REMARK   16  A    between atoms: _41  and  _44
REMARK   17  A    between atoms: _44  and  _45
REMARK   18  A    between atoms: _45  and  _46
REMARK   19  A    between atoms: _46  and  _47
REMARK   20  A    between atoms: _47  and  _48
REMARK   21  A    between atoms: _52  and  _54
REMARK   22  A    between atoms: _54  and  _55
REMARK   23  A    between atoms: _57  and  _59
REMARK   24  A    between atoms: _59  and  _60
REMARK   25  A    between atoms: _59  and  _62
REMARK   26  A    between atoms: _62  and  _63
REMARK   27  A    between atoms: _63  and  _64
REMARK   28  A    between atoms: _64  and  _65
REMARK   29  A    between atoms: _65  and  _66
REMARK   30  A    between atoms: _70  and  _72
REMARK   31  A    between atoms: _72  and  _73
REMARK   32  A    between atoms: _72  and  _75
REMARK   33  A    between atoms: _75  and  _76
REMARK   34  A    between atoms: _82  and  _84
REMARK   35  A    between atoms: _84  and  _85
REMARK   36  A    between atoms: _87  and  _89
REMARK   37  A    between atoms: _89  and  _90
REMARK   38  A    between atoms: _89  and  _92
REMARK   39  A    between atoms: _92  and  _93
REMARK   40  A    between atoms: _98  and  _100
REMARK   41  A    between atoms: _100  and  _101
REMARK   42  A    between atoms: _100  and  _103
REMARK   43  A    between atoms: _106  and  _108
REMARK   44  A    between atoms: _108  and  _109
REMARK   45  A    between atoms: _108  and  _111
REMARK   46  A    between atoms: _111  and  _112
REMARK   47  A    between atoms: _117  and  _118
REMARK   48  A    between atoms: _120  and  _122
REMARK   49  A    between atoms: _122  and  _123
REMARK   50  A    between atoms: _122  and  _125
REMARK   51  A    between atoms: _125  and  _126
REMARK   52  A    between atoms: _129  and  _131
REMARK   53  A    between atoms: _131  and  _132
REMARK   54  A    between atoms: _135  and  _137
REMARK   55  A    between atoms: _137  and  _138
REMARK   56  A    between atoms: _137  and  _140
REMARK   57  A    between atoms: _140  and  _141
REMARK   58  A    between atoms: _141  and  _142
REMARK   59  A    between atoms: _144  and  _146
REMARK   60  A    between atoms: _146  and  _147
REMARK   61  A    between atoms: _150  and  _152
REMARK   62  A    between atoms: _152  and  _153
REMARK   63  A    between atoms: _152  and  _155
REMARK   64  A    between atoms: _155  and  _156
REMARK   65  A    between atoms: _159  and  _161
REMARK   66  A    between atoms: _161  and  _162
REMARK   67  A    between atoms: _161  and  _164
REMARK   68  A    between atoms: _164  and  _165
REMARK   69  A    between atoms: _165  and  _166
REMARK   70  A    between atoms: _166  and  _167
REMARK   71  A    between atoms: _167  and  _168
REMARK   72  A    between atoms: _172  and  _174
REMARK   73  A    between atoms: _174  and  _175
REMARK   74  A    between atoms: _174  and  _177
REMARK   75  A    between atoms: _180  and  _182
REMARK   76  A    between atoms: _182  and  _183
REMARK   77  A    between atoms: _182  and  _185
REMARK   78  A    between atoms: _185  and  _186
REMARK   79  A    between atoms: _189  and  _191
REMARK   80  A    between atoms: _191  and  _192
REMARK   81  A    between atoms: _191  and  _194
REMARK   82  A    between atoms: _194  and  _195
REMARK   83  A    between atoms: _198  and  _200
REMARK   84  A    between atoms: _200  and  _201
REMARK   85  A    between atoms: _200  and  _203
REMARK   86  A    between atoms: _203  and  _204
REMARK   87  A    between atoms: _204  and  _205
REMARK   88  A    between atoms: _210  and  _212
REMARK   89  A    between atoms: _212  and  _213
REMARK   90  A    between atoms: _212  and  _215
REMARK   91  A    between atoms: _215  and  _216
REMARK   92  A    between atoms: _219  and  _221
REMARK   93  A    between atoms: _221  and  _222
REMARK   94  A    between atoms: _221  and  _224
REMARK   95  A    between atoms: _224  and  _225
REMARK   96  A    between atoms: _225  and  _226
REMARK   97  A    between atoms: _226  and  _227
REMARK   98  A    between atoms: _236  and  _238
REMARK   99  A    between atoms: _238  and  _239
REMARK  100  A    between atoms: _238  and  _241
REMARK  101  A    between atoms: _241  and  _242
REMARK  102  A    between atoms: _242  and  _243
REMARK  103  A    between atoms: _243  and  _244
REMARK  104  A    between atoms: _253  and  _255
REMARK  105  A    between atoms: _255  and  _256
REMARK  106  A    between atoms: _255  and  _258
REMARK  107  A    between atoms: _258  and  _259
REMARK  108  A    between atoms: _259  and  _260
REMARK  109  A    between atoms: _263  and  _265
REMARK  110  A    between atoms: _265  and  _266
REMARK  111  A    between atoms: _265  and  _268
REMARK  112  A    between atoms: _268  and  _269
REMARK  113  A    between atoms: _272  and  _274
REMARK  114  A    between atoms: _274  and  _275
REMARK  115  A    between atoms: _274  and  _277
REMARK  116  A    between atoms: _277  and  _278
REMARK  117  A    between atoms: _278  and  _279
REMARK  118  A    between atoms: _282  and  _284
REMARK  119  A    between atoms: _284  and  _285
REMARK  120  A    between atoms: _284  and  _287
REMARK  121  A    between atoms: _287  and  _288
REMARK  122  A    between atoms: _291  and  _293
REMARK  123  A    between atoms: _293  and  _294
REMARK  124  A    between atoms: _293  and  _296
REMARK  125  A    between atoms: _296  and  _297
REMARK  126  A    between atoms: _297  and  _298
REMARK  127  A    between atoms: _303  and  _305
REMARK  128  A    between atoms: _305  and  _306
REMARK  129  A    between atoms: _305  and  _308
REMARK  130  A    between atoms: _308  and  _309
REMARK  131  A    between atoms: _311  and  _313
REMARK  132  A    between atoms: _313  and  _314
REMARK  133  A    between atoms: _313  and  _316
REMARK  134  A    between atoms: _316  and  _317
REMARK  135  A    between atoms: _320  and  _322
REMARK  136  A    between atoms: _322  and  _323
REMARK  137  A    between atoms: _322  and  _325
REMARK  138  A    between atoms: _325  and  _326
REMARK  139  A    between atoms: _326  and  _327
REMARK  140  A    between atoms: _327  and  _328
REMARK  141  A    between atoms: _337  and  _339
REMARK  142  A    between atoms: _339  and  _340
REMARK  143  A    between atoms: _339  and  _342
REMARK  144  A    between atoms: _342  and  _343
REMARK  145  A    between atoms: _343  and  _344
REMARK  146  A    between atoms: _346  and  _348
REMARK  147  A    between atoms: _348  and  _349
REMARK  148  A    between atoms: _348  and  _351
REMARK  149  A    between atoms: _351  and  _352
REMARK  150  A    between atoms: _355  and  _357
REMARK  151  A    between atoms: _357  and  _358
REMARK  152  A    between atoms: _357  and  _360
REMARK  153  A    between atoms: _360  and  _361
REMARK  154  A    between atoms: _364  and  _366
REMARK  155  A    between atoms: _366  and  _367
REMARK  156  A    between atoms: _366  and  _369
REMARK  157  A    between atoms: _369  and  _370
REMARK  158  A    between atoms: _370  and  _371
REMARK  159  A    between atoms: _373  and  _375
REMARK  160  A    between atoms: _375  and  _376
REMARK  161  A    between atoms: _375  and  _378
REMARK  162  A    between atoms: _378  and  _379
REMARK  163  A    between atoms: _382  and  _384
REMARK  164  A    between atoms: _384  and  _385
REMARK  165  A    between atoms: _384  and  _387
REMARK  166  A    between atoms: _387  and  _388
REMARK  167  A    between atoms: _388  and  _389
REMARK  168  A    between atoms: _392  and  _394
REMARK  169  A    between atoms: _394  and  _395
REMARK  170  A    between atoms: _394  and  _397
REMARK  171  A    between atoms: _397  and  _398
REMARK  172  A    between atoms: _404  and  _406
REMARK  173  A    between atoms: _406  and  _407
REMARK  174  A    between atoms: _411  and  _412
REMARK  175  A    between atoms: _417  and  _419
REMARK  176  A    between atoms: _419  and  _420
REMARK  177  A    between atoms: _419  and  _422
REMARK  178  A    between atoms: _422  and  _423
REMARK  179  A    between atoms: _423  and  _424
REMARK  180  A    between atoms: _424  and  _425
REMARK  181  A    between atoms: _434  and  _436
REMARK  182  A    between atoms: _436  and  _437
REMARK  183  A    between atoms: _439  and  _441
REMARK  184  A    between atoms: _441  and  _442
REMARK  185  A    between atoms: _441  and  _444
REMARK  186  A    between atoms: _444  and  _445
REMARK  187  A    between atoms: _445  and  _446
REMARK  188  A    between atoms: _449  and  _451
REMARK  189  A    between atoms: _451  and  _452
REMARK  190  A    between atoms: _451  and  _454
REMARK  191  A    between atoms: _454  and  _455
REMARK  192  A    between atoms: _458  and  _460
REMARK  193  A    between atoms: _460  and  _461
REMARK  194  A    between atoms: _460  and  _463
REMARK  195  A    between atoms: _463  and  _464
REMARK  196  A    between atoms: _464  and  _465
REMARK  197  A    between atoms: _465  and  _466
REMARK  198  A    between atoms: _466  and  _467
REMARK  199  A    between atoms: _471  and  _473
REMARK  200  A    between atoms: _473  and  _474
REMARK  201  A    between atoms: _473  and  _476
REMARK  202  A    between atoms: _476  and  _477
REMARK  203  A    between atoms: _477  and  _478
REMARK  204  A    between atoms: _481  and  _483
REMARK  205  A    between atoms: _483  and  _484
REMARK  206  A    between atoms: _483  and  _486
REMARK  207  A    between atoms: _486  and  _487
REMARK  208  A    between atoms: _487  and  _488
REMARK  209  A    between atoms: _488  and  _489
REMARK  210  A    between atoms: _489  and  _490
REMARK  211  A    between atoms: _494  and  _496
REMARK  212  A    between atoms: _496  and  _497
REMARK  213  A    between atoms: _496  and  _499
REMARK  214  A    between atoms: _499  and  _500
REMARK  215  A    between atoms: _500  and  _501
REMARK  216  A    between atoms: _504  and  _506
REMARK  217  A    between atoms: _506  and  _507
REMARK  218  A    between atoms: _506  and  _509
REMARK  219  A    between atoms: _509  and  _510
REMARK  220  A    between atoms: _515  and  _517
REMARK  221  A    between atoms: _517  and  _518
REMARK  222  A    between atoms: _517  and  _520
REMARK  223  A    between atoms: _520  and  _521
REMARK  224  A    between atoms: _524  and  _526
REMARK  225  A    between atoms: _526  and  _527
REMARK  226  A    between atoms: _526  and  _529
REMARK  227  A    between atoms: _529  and  _530
REMARK  228  A    between atoms: _533  and  _535
REMARK  229  A    between atoms: _535  and  _536
REMARK  230  A    between atoms: _535  and  _538
REMARK  231  A    between atoms: _538  and  _539
REMARK  232  A    between atoms: _539  and  _540
REMARK  233  A    between atoms: _542  and  _544
REMARK  234  A    between atoms: _544  and  _545
REMARK  235  A    between atoms: _544  and  _547
REMARK  236  A    between atoms: _547  and  _548
REMARK  237  A    between atoms: _548  and  _549
REMARK  238  A    between atoms: _549  and  _550
REMARK  239  A    between atoms: _550  and  _551
REMARK  240  A    between atoms: _555  and  _557
REMARK  241  A    between atoms: _557  and  _558
REMARK  242  A    between atoms: _557  and  _560
REMARK  243  A    between atoms: _560  and  _561
REMARK  244  A    between atoms: _564  and  _566
REMARK  245  A    between atoms: _566  and  _567
REMARK  246  A    between atoms: _570  and  _572
REMARK  247  A    between atoms: _572  and  _573
REMARK  248  A    between atoms: _572  and  _575
REMARK  249  A    between atoms: _575  and  _576
REMARK  250  A    between atoms: _579  and  _581
REMARK  251  A    between atoms: _581  and  _582
REMARK  252  A    between atoms: _581  and  _584
REMARK  253  A    between atoms: _584  and  _585
REMARK  254  A    between atoms: _591  and  _593
REMARK  255  A    between atoms: _593  and  _594
REMARK  256  A    between atoms: _596  and  _598
REMARK  257  A    between atoms: _598  and  _599
REMARK  258  A    between atoms: _598  and  _601
REMARK  259  A    between atoms: _601  and  _602
REMARK                            x       y       z     vdW  Elec       q    Type
REMARK                         _______ _______ _______ _____ _____    ______ ____
ROOT
ATOM      1  O   HOH     1      -5.676 -18.048  11.374  0.00  0.00    +0.000 OA
ENDROOT
TORSDOF 0
REMARK  Name = ../refined-set-2016/4c2v/4c2v_pocket.pdb
REMARK  259 active torsions:
REMARK  status: ('A' for Active; 'I' for Inactive)
REMARK    1  A    between atoms: _1  and  _3
REMARK    2  A    between atoms: _3  and  _4
REMARK    3  A    between atoms: _3  and  _6
REMARK    4  A    between atoms: _6  and  _7
REMARK    5  A    between atoms: _7  and  _8
REMARK    6  A    between atoms: _8  and  _9
REMARK    7  A    between atoms: _19  and  _20
REMARK    8  A    between atoms: _25  and  _27
REMARK    9  A    between atoms: _27  and  _28
REMARK   10  A    between atoms: _27  and  _30
REMARK   11  A    between atoms: _30  and  _31
REMARK   12  A    between atoms: _34  and  _36
REMARK   13  A    between atoms: _36  and  _37
REMARK   14  A    between atoms: _39  and  _41
REMARK   15  A    between atoms: _41  and  _42
REMARK   16  A    between atoms: _41  and  _44
REMARK   17  A    between atoms: _44  and  _45
REMARK   18  A    between atoms: _45  and  _46
REMARK   19  A    between atoms: _46  and  _47
REMARK   20  A    between atoms: _47  and  _48
REMARK   21  A    between atoms: _52  and  _54
REMARK   22  A    between atoms: _54  and  _55
REMARK   23  A    between atoms: _57  and  _59
REMARK   24  A    between atoms: _59  and  _60
REMARK   25  A    between atoms: _59  and  _62
REMARK   26  A    between atoms: _62  and  _63
REMARK   27  A    between atoms: _63  and  _64
REMARK   28  A    between atoms: _64  and  _65
REMARK   29  A    between atoms: _65  and  _66
REMARK   30  A    between atoms: _70  and  _72
REMARK   31  A    between atoms: _72  and  _73
REMARK   32  A    between atoms: _72  and  _75
REMARK   33  A    between atoms: _75  and  _76
REMARK   34  A    between atoms: _82  and  _84
REMARK   35  A    between atoms: _84  and  _85
REMARK   36  A    between atoms: _87  and  _89
REMARK   37  A    between atoms: _89  and  _90
REMARK   38  A    between atoms: _89  and  _92
REMARK   39  A    between atoms: _92  and  _93
REMARK   40  A    between atoms: _98  and  _100
REMARK   41  A    between atoms: _100  and  _101
REMARK   42  A    between atoms: _100  and  _103
REMARK   43  A    between atoms: _106  and  _108
REMARK   44  A    between atoms: _108  and  _109
REMARK   45  A    between atoms: _108  and  _111
REMARK   46  A    between atoms: _111  and  _112
REMARK   47  A    between atoms: _117  and  _118
REMARK   48  A    between atoms: _120  and  _122
REMARK   49  A    between atoms: _122  and  _123
REMARK   50  A    between atoms: _122  and  _125
REMARK   51  A    between atoms: _125  and  _126
REMARK   52  A    between atoms: _129  and  _131
REMARK   53  A    between atoms: _131  and  _132
REMARK   54  A    between atoms: _135  and  _137
REMARK   55  A    between atoms: _137  and  _138
REMARK   56  A    between atoms: _137  and  _140
REMARK   57  A    between atoms: _140  and  _141
REMARK   58  A    between atoms: _141  and  _142
REMARK   59  A    between atoms: _144  and  _146
REMARK   60  A    between atoms: _146  and  _147
REMARK   61  A    between atoms: _150  and  _152
REMARK   62  A    between atoms: _152  and  _153
REMARK   63  A    between atoms: _152  and  _155
REMARK   64  A    between atoms: _155  and  _156
REMARK   65  A    between atoms: _159  and  _161
REMARK   66  A    between atoms: _161  and  _162
REMARK   67  A    between atoms: _161  and  _164
REMARK   68  A    between atoms: _164  and  _165
REMARK   69  A    between atoms: _165  and  _166
REMARK   70  A    between atoms: _166  and  _167
REMARK   71  A    between atoms: _167  and  _168
REMARK   72  A    between atoms: _172  and  _174
REMARK   73  A    between atoms: _174  and  _175
REMARK   74  A    between atoms: _174  and  _177
REMARK   75  A    between atoms: _180  and  _182
REMARK   76  A    between atoms: _182  and  _183
REMARK   77  A    between atoms: _182  and  _185
REMARK   78  A    between atoms: _185  and  _186
REMARK   79  A    between atoms: _189  and  _191
REMARK   80  A    between atoms: _191  and  _192
REMARK   81  A    between atoms: _191  and  _194
REMARK   82  A    between atoms: _194  and  _195
REMARK   83  A    between atoms: _198  and  _200
REMARK   84  A    between atoms: _200  and  _201
REMARK   85  A    between atoms: _200  and  _203
REMARK   86  A    between atoms: _203  and  _204
REMARK   87  A    between atoms: _204  and  _205
REMARK   88  A    between atoms: _210  and  _212
REMARK   89  A    between atoms: _212  and  _213
REMARK   90  A    between atoms: _212  and  _215
REMARK   91  A    between atoms: _215  and  _216
REMARK   92  A    between atoms: _219  and  _221
REMARK   93  A    between atoms: _221  and  _222
REMARK   94  A    between atoms: _221  and  _224
REMARK   95  A    between atoms: _224  and  _225
REMARK   96  A    between atoms: _225  and  _226
REMARK   97  A    between atoms: _226  and  _227
REMARK   98  A    between atoms: _236  and  _238
REMARK   99  A    between atoms: _238  and  _239
REMARK  100  A    between atoms: _238  and  _241
REMARK  101  A    between atoms: _241  and  _242
REMARK  102  A    between atoms: _242  and  _243
REMARK  103  A    between atoms: _243  and  _244
REMARK  104  A    between atoms: _253  and  _255
REMARK  105  A    between atoms: _255  and  _256
REMARK  106  A    between atoms: _255  and  _258
REMARK  107  A    between atoms: _258  and  _259
REMARK  108  A    between atoms: _259  and  _260
REMARK  109  A    between atoms: _263  and  _265
REMARK  110  A    between atoms: _265  and  _266
REMARK  111  A    between atoms: _265  and  _268
REMARK  112  A    between atoms: _268  and  _269
REMARK  113  A    between atoms: _272  and  _274
REMARK  114  A    between atoms: _274  and  _275
REMARK  115  A    between atoms: _274  and  _277
REMARK  116  A    between atoms: _277  and  _278
REMARK  117  A    between atoms: _278  and  _279
REMARK  118  A    between atoms: _282  and  _284
REMARK  119  A    between atoms: _284  and  _285
REMARK  120  A    between atoms: _284  and  _287
REMARK  121  A    between atoms: _287  and  _288
REMARK  122  A    between atoms: _291  and  _293
REMARK  123  A    between atoms: _293  and  _294
REMARK  124  A    between atoms: _293  and  _296
REMARK  125  A    between atoms: _296  and  _297
REMARK  126  A    between atoms: _297  and  _298
REMARK  127  A    between atoms: _303  and  _305
REMARK  128  A    between atoms: _305  and  _306
REMARK  129  A    between atoms: _305  and  _308
REMARK  130  A    between atoms: _308  and  _309
REMARK  131  A    between atoms: _311  and  _313
REMARK  132  A    between atoms: _313  and  _314
REMARK  133  A    between atoms: _313  and  _316
REMARK  134  A    between atoms: _316  and  _317
REMARK  135  A    between atoms: _320  and  _322
REMARK  136  A    between atoms: _322  and  _323
REMARK  137  A    between atoms: _322  and  _325
REMARK  138  A    between atoms: _325  and  _326
REMARK  139  A    between atoms: _326  and  _327
REMARK  140  A    between atoms: _327  and  _328
REMARK  141  A    between atoms: _337  and  _339
REMARK  142  A    between atoms: _339  and  _340
REMARK  143  A    between atoms: _339  and  _342
REMARK  144  A    between atoms: _342  and  _343
REMARK  145  A    between atoms: _343  and  _344
REMARK  146  A    between atoms: _346  and  _348
REMARK  147  A    between atoms: _348  and  _349
REMARK  148  A    between atoms: _348  and  _351
REMARK  149  A    between atoms: _351  and  _352
REMARK  150  A    between atoms: _355  and  _357
REMARK  151  A    between atoms: _357  and  _358
REMARK  152  A    between atoms: _357  and  _360
REMARK  153  A    between atoms: _360  and  _361
REMARK  154  A    between atoms: _364  and  _366
REMARK  155  A    between atoms: _366  and  _367
REMARK  156  A    between atoms: _366  and  _369
REMARK  157  A    between atoms: _369  and  _370
REMARK  158  A    between atoms: _370  and  _371
REMARK  159  A    between atoms: _373  and  _375
REMARK  160  A    between atoms: _375  and  _376
REMARK  161  A    between atoms: _375  and  _378
REMARK  162  A    between atoms: _378  and  _379
REMARK  163  A    between atoms: _382  and  _384
REMARK  164  A    between atoms: _384  and  _385
REMARK  165  A    between atoms: _384  and  _387
REMARK  166  A    between atoms: _387  and  _388
REMARK  167  A    between atoms: _388  and  _389
REMARK  168  A    between atoms: _392  and  _394
REMARK  169  A    between atoms: _394  and  _395
REMARK  170  A    between atoms: _394  and  _397
REMARK  171  A    between atoms: _397  and  _398
REMARK  172  A    between atoms: _404  and  _406
REMARK  173  A    between atoms: _406  and  _407
REMARK  174  A    between atoms: _411  and  _412
REMARK  175  A    between atoms: _417  and  _419
REMARK  176  A    between atoms: _419  and  _420
REMARK  177  A    between atoms: _419  and  _422
REMARK  178  A    between atoms: _422  and  _423
REMARK  179  A    between atoms: _423  and  _424
REMARK  180  A    between atoms: _424  and  _425
REMARK  181  A    between atoms: _434  and  _436
REMARK  182  A    between atoms: _436  and  _437
REMARK  183  A    between atoms: _439  and  _441
REMARK  184  A    between atoms: _441  and  _442
REMARK  185  A    between atoms: _441  and  _444
REMARK  186  A    between atoms: _444  and  _445
REMARK  187  A    between atoms: _445  and  _446
REMARK  188  A    between atoms: _449  and  _451
REMARK  189  A    between atoms: _451  and  _452
REMARK  190  A    between atoms: _451  and  _454
REMARK  191  A    between atoms: _454  and  _455
REMARK  192  A    between atoms: _458  and  _460
REMARK  193  A    between atoms: _460  and  _461
REMARK  194  A    between atoms: _460  and  _463
REMARK  195  A    between atoms: _463  and  _464
REMARK  196  A    between atoms: _464  and  _465
REMARK  197  A    between atoms: _465  and  _466
REMARK  198  A    between atoms: _466  and  _467
REMARK  199  A    between atoms: _471  and  _473
REMARK  200  A    between atoms: _473  and  _474
REMARK  201  A    between atoms: _473  and  _476
REMARK  202  A    between atoms: _476  and  _477
REMARK  203  A    between atoms: _477  and  _478
REMARK  204  A    between atoms: _481  and  _483
REMARK  205  A    between atoms: _483  and  _484
REMARK  206  A    between atoms: _483  and  _486
REMARK  207  A    between atoms: _486  and  _487
REMARK  208  A    between atoms: _487  and  _488
REMARK  209  A    between atoms: _488  and  _489
REMARK  210  A    between atoms: _489  and  _490
REMARK  211  A    between atoms: _494  and  _496
REMARK  212  A    between atoms: _496  and  _497
REMARK  213  A    between atoms: _496  and  _499
REMARK  214  A    between atoms: _499  and  _500
REMARK  215  A    between atoms: _500  and  _501
REMARK  216  A    between atoms: _504  and  _506
REMARK  217  A    between atoms: _506  and  _507
REMARK  218  A    between atoms: _506  and  _509
REMARK  219  A    between atoms: _509  and  _510
REMARK  220  A    between atoms: _515  and  _517
REMARK  221  A    between atoms: _517  and  _518
REMARK  222  A    between atoms: _517  and  _520
REMARK  223  A    between atoms: _520  and  _521
REMARK  224  A    between atoms: _524  and  _526
REMARK  225  A    between atoms: _526  and  _527
REMARK  226  A    between atoms: _526  and  _529
REMARK  227  A    between atoms: _529  and  _530
REMARK  228  A    between atoms: _533  and  _535
REMARK  229  A    between atoms: _535  and  _536
REMARK  230  A    between atoms: _535  and  _538
REMARK  231  A    between atoms: _538  and  _539
REMARK  232  A    between atoms: _539  and  _540
REMARK  233  A    between atoms: _542  and  _544
REMARK  234  A    between atoms: _544  and  _545
REMARK  235  A    between atoms: _544  and  _547
REMARK  236  A    between atoms: _547  and  _548
REMARK  237  A    between atoms: _548  and  _549
REMARK  238  A    between atoms: _549  and  _550
REMARK  239  A    between atoms: _550  and  _551
REMARK  240  A    between atoms: _555  and  _557
REMARK  241  A    between atoms: _557  and  _558
REMARK  242  A    between atoms: _557  and  _560
REMARK  243  A    between atoms: _560  and  _561
REMARK  244  A    between atoms: _564  and  _566
REMARK  245  A    between atoms: _566  and  _567
REMARK  246  A    between atoms: _570  and  _572
REMARK  247  A    between atoms: _572  and  _573
REMARK  248  A    between atoms: _572  and  _575
REMARK  249  A    between atoms: _575  and  _576
REMARK  250  A    between atoms: _579  and  _581
REMARK  251  A    between atoms: _581  and  _582
REMARK  252  A    between atoms: _581  and  _584
REMARK  253  A    between atoms: _584  and  _585
REMARK  254  A    between atoms: _591  and  _593
REMARK  255  A    between atoms: _593  and  _594
REMARK  256  A    between atoms: _596  and  _598
REMARK  257  A    between atoms: _598  and  _599
REMARK  258  A    between atoms: _598  and  _601
REMARK  259  A    between atoms: _601  and  _602
REMARK                            x       y       z     vdW  Elec       q    Type
REMARK                         _______ _______ _______ _____ _____    ______ ____
ROOT
ATOM      1  O   HOH     1      -5.191 -20.038   9.322  0.00  0.00    +0.000 OA
ENDROOT
TORSDOF 0
REMARK  Name = ../refined-set-2016/4c2v/4c2v_pocket.pdb
REMARK  259 active torsions:
REMARK  status: ('A' for Active; 'I' for Inactive)
REMARK    1  A    between atoms: _1  and  _3
REMARK    2  A    between atoms: _3  and  _4
REMARK    3  A    between atoms: _3  and  _6
REMARK    4  A    between atoms: _6  and  _7
REMARK    5  A    between atoms: _7  and  _8
REMARK    6  A    between atoms: _8  and  _9
REMARK    7  A    between atoms: _19  and  _20
REMARK    8  A    between atoms: _25  and  _27
REMARK    9  A    between atoms: _27  and  _28
REMARK   10  A    between atoms: _27  and  _30
REMARK   11  A    between atoms: _30  and  _31
REMARK   12  A    between atoms: _34  and  _36
REMARK   13  A    between atoms: _36  and  _37
REMARK   14  A    between atoms: _39  and  _41
REMARK   15  A    between atoms: _41  and  _42
REMARK   16  A    between atoms: _41  and  _44
REMARK   17  A    between atoms: _44  and  _45
REMARK   18  A    between atoms: _45  and  _46
REMARK   19  A    between atoms: _46  and  _47
REMARK   20  A    between atoms: _47  and  _48
REMARK   21  A    between atoms: _52  and  _54
REMARK   22  A    between atoms: _54  and  _55
REMARK   23  A    between atoms: _57  and  _59
REMARK   24  A    between atoms: _59  and  _60
REMARK   25  A    between atoms: _59  and  _62
REMARK   26  A    between atoms: _62  and  _63
REMARK   27  A    between atoms: _63  and  _64
REMARK   28  A    between atoms: _64  and  _65
REMARK   29  A    between atoms: _65  and  _66
REMARK   30  A    between atoms: _70  and  _72
REMARK   31  A    between atoms: _72  and  _73
REMARK   32  A    between atoms: _72  and  _75
REMARK   33  A    between atoms: _75  and  _76
REMARK   34  A    between atoms: _82  and  _84
REMARK   35  A    between atoms: _84  and  _85
REMARK   36  A    between atoms: _87  and  _89
REMARK   37  A    between atoms: _89  and  _90
REMARK   38  A    between atoms: _89  and  _92
REMARK   39  A    between atoms: _92  and  _93
REMARK   40  A    between atoms: _98  and  _100
REMARK   41  A    between atoms: _100  and  _101
REMARK   42  A    between atoms: _100  and  _103
REMARK   43  A    between atoms: _106  and  _108
REMARK   44  A    between atoms: _108  and  _109
REMARK   45  A    between atoms: _108  and  _111
REMARK   46  A    between atoms: _111  and  _112
REMARK   47  A    between atoms: _117  and  _118
REMARK   48  A    between atoms: _120  and  _122
REMARK   49  A    between atoms: _122  and  _123
REMARK   50  A    between atoms: _122  and  _125
REMARK   51  A    between atoms: _125  and  _126
REMARK   52  A    between atoms: _129  and  _131
REMARK   53  A    between atoms: _131  and  _132
REMARK   54  A    between atoms: _135  and  _137
REMARK   55  A    between atoms: _137  and  _138
REMARK   56  A    between atoms: _137  and  _140
REMARK   57  A    between atoms: _140  and  _141
REMARK   58  A    between atoms: _141  and  _142
REMARK   59  A    between atoms: _144  and  _146
REMARK   60  A    between atoms: _146  and  _147
REMARK   61  A    between atoms: _150  and  _152
REMARK   62  A    between atoms: _152  and  _153
REMARK   63  A    between atoms: _152  and  _155
REMARK   64  A    between atoms: _155  and  _156
REMARK   65  A    between atoms: _159  and  _161
REMARK   66  A    between atoms: _161  and  _162
REMARK   67  A    between atoms: _161  and  _164
REMARK   68  A    between atoms: _164  and  _165
REMARK   69  A    between atoms: _165  and  _166
REMARK   70  A    between atoms: _166  and  _167
REMARK   71  A    between atoms: _167  and  _168
REMARK   72  A    between atoms: _172  and  _174
REMARK   73  A    between atoms: _174  and  _175
REMARK   74  A    between atoms: _174  and  _177
REMARK   75  A    between atoms: _180  and  _182
REMARK   76  A    between atoms: _182  and  _183
REMARK   77  A    between atoms: _182  and  _185
REMARK   78  A    between atoms: _185  and  _186
REMARK   79  A    between atoms: _189  and  _191
REMARK   80  A    between atoms: _191  and  _192
REMARK   81  A    between atoms: _191  and  _194
REMARK   82  A    between atoms: _194  and  _195
REMARK   83  A    between atoms: _198  and  _200
REMARK   84  A    between atoms: _200  and  _201
REMARK   85  A    between atoms: _200  and  _203
REMARK   86  A    between atoms: _203  and  _204
REMARK   87  A    between atoms: _204  and  _205
REMARK   88  A    between atoms: _210  and  _212
REMARK   89  A    between atoms: _212  and  _213
REMARK   90  A    between atoms: _212  and  _215
REMARK   91  A    between atoms: _215  and  _216
REMARK   92  A    between atoms: _219  and  _221
REMARK   93  A    between atoms: _221  and  _222
REMARK   94  A    between atoms: _221  and  _224
REMARK   95  A    between atoms: _224  and  _225
REMARK   96  A    between atoms: _225  and  _226
REMARK   97  A    between atoms: _226  and  _227
REMARK   98  A    between atoms: _236  and  _238
REMARK   99  A    between atoms: _238  and  _239
REMARK  100  A    between atoms: _238  and  _241
REMARK  101  A    between atoms: _241  and  _242
REMARK  102  A    between atoms: _242  and  _243
REMARK  103  A    between atoms: _243  and  _244
REMARK  104  A    between atoms: _253  and  _255
REMARK  105  A    between atoms: _255  and  _256
REMARK  106  A    between atoms: _255  and  _258
REMARK  107  A    between atoms: _258  and  _259
REMARK  108  A    between atoms: _259  and  _260
REMARK  109  A    between atoms: _263  and  _265
REMARK  110  A    between atoms: _265  and  _266
REMARK  111  A    between atoms: _265  and  _268
REMARK  112  A    between atoms: _268  and  _269
REMARK  113  A    between atoms: _272  and  _274
REMARK  114  A    between atoms: _274  and  _275
REMARK  115  A    between atoms: _274  and  _277
REMARK  116  A    between atoms: _277  and  _278
REMARK  117  A    between atoms: _278  and  _279
REMARK  118  A    between atoms: _282  and  _284
REMARK  119  A    between atoms: _284  and  _285
REMARK  120  A    between atoms: _284  and  _287
REMARK  121  A    between atoms: _287  and  _288
REMARK  122  A    between atoms: _291  and  _293
REMARK  123  A    between atoms: _293  and  _294
REMARK  124  A    between atoms: _293  and  _296
REMARK  125  A    between atoms: _296  and  _297
REMARK  126  A    between atoms: _297  and  _298
REMARK  127  A    between atoms: _303  and  _305
REMARK  128  A    between atoms: _305  and  _306
REMARK  129  A    between atoms: _305  and  _308
REMARK  130  A    between atoms: _308  and  _309
REMARK  131  A    between atoms: _311  and  _313
REMARK  132  A    between atoms: _313  and  _314
REMARK  133  A    between atoms: _313  and  _316
REMARK  134  A    between atoms: _316  and  _317
REMARK  135  A    between atoms: _320  and  _322
REMARK  136  A    between atoms: _322  and  _323
REMARK  137  A    between atoms: _322  and  _325
REMARK  138  A    between atoms: _325  and  _326
REMARK  139  A    between atoms: _326  and  _327
REMARK  140  A    between atoms: _327  and  _328
REMARK  141  A    between atoms: _337  and  _339
REMARK  142  A    between atoms: _339  and  _340
REMARK  143  A    between atoms: _339  and  _342
REMARK  144  A    between atoms: _342  and  _343
REMARK  145  A    between atoms: _343  and  _344
REMARK  146  A    between atoms: _346  and  _348
REMARK  147  A    between atoms: _348  and  _349
REMARK  148  A    between atoms: _348  and  _351
REMARK  149  A    between atoms: _351  and  _352
REMARK  150  A    between atoms: _355  and  _357
REMARK  151  A    between atoms: _357  and  _358
REMARK  152  A    between atoms: _357  and  _360
REMARK  153  A    between atoms: _360  and  _361
REMARK  154  A    between atoms: _364  and  _366
REMARK  155  A    between atoms: _366  and  _367
REMARK  156  A    between atoms: _366  and  _369
REMARK  157  A    between atoms: _369  and  _370
REMARK  158  A    between atoms: _370  and  _371
REMARK  159  A    between atoms: _373  and  _375
REMARK  160  A    between atoms: _375  and  _376
REMARK  161  A    between atoms: _375  and  _378
REMARK  162  A    between atoms: _378  and  _379
REMARK  163  A    between atoms: _382  and  _384
REMARK  164  A    between atoms: _384  and  _385
REMARK  165  A    between atoms: _384  and  _387
REMARK  166  A    between atoms: _387  and  _388
REMARK  167  A    between atoms: _388  and  _389
REMARK  168  A    between atoms: _392  and  _394
REMARK  169  A    between atoms: _394  and  _395
REMARK  170  A    between atoms: _394  and  _397
REMARK  171  A    between atoms: _397  and  _398
REMARK  172  A    between atoms: _404  and  _406
REMARK  173  A    between atoms: _406  and  _407
REMARK  174  A    between atoms: _411  and  _412
REMARK  175  A    between atoms: _417  and  _419
REMARK  176  A    between atoms: _419  and  _420
REMARK  177  A    between atoms: _419  and  _422
REMARK  178  A    between atoms: _422  and  _423
REMARK  179  A    between atoms: _423  and  _424
REMARK  180  A    between atoms: _424  and  _425
REMARK  181  A    between atoms: _434  and  _436
REMARK  182  A    between atoms: _436  and  _437
REMARK  183  A    between atoms: _439  and  _441
REMARK  184  A    between atoms: _441  and  _442
REMARK  185  A    between atoms: _441  and  _444
REMARK  186  A    between atoms: _444  and  _445
REMARK  187  A    between atoms: _445  and  _446
REMARK  188  A    between atoms: _449  and  _451
REMARK  189  A    between atoms: _451  and  _452
REMARK  190  A    between atoms: _451  and  _454
REMARK  191  A    between atoms: _454  and  _455
REMARK  192  A    between atoms: _458  and  _460
REMARK  193  A    between atoms: _460  and  _461
REMARK  194  A    between atoms: _460  and  _463
REMARK  195  A    between atoms: _463  and  _464
REMARK  196  A    between atoms: _464  and  _465
REMARK  197  A    between atoms: _465  and  _466
REMARK  198  A    between atoms: _466  and  _467
REMARK  199  A    between atoms: _471  and  _473
REMARK  200  A    between atoms: _473  and  _474
REMARK  201  A    between atoms: _473  and  _476
REMARK  202  A    between atoms: _476  and  _477
REMARK  203  A    between atoms: _477  and  _478
REMARK  204  A    between atoms: _481  and  _483
REMARK  205  A    between atoms: _483  and  _484
REMARK  206  A    between atoms: _483  and  _486
REMARK  207  A    between atoms: _486  and  _487
REMARK  208  A    between atoms: _487  and  _488
REMARK  209  A    between atoms: _488  and  _489
REMARK  210  A    between atoms: _489  and  _490
REMARK  211  A    between atoms: _494  and  _496
REMARK  212  A    between atoms: _496  and  _497
REMARK  213  A    between atoms: _496  and  _499
REMARK  214  A    between atoms: _499  and  _500
REMARK  215  A    between atoms: _500  and  _501
REMARK  216  A    between atoms: _504  and  _506
REMARK  217  A    between atoms: _506  and  _507
REMARK  218  A    between atoms: _506  and  _509
REMARK  219  A    between atoms: _509  and  _510
REMARK  220  A    between atoms: _515  and  _517
REMARK  221  A    between atoms: _517  and  _518
REMARK  222  A    between atoms: _517  and  _520
REMARK  223  A    between atoms: _520  and  _521
REMARK  224  A    between atoms: _524  and  _526
REMARK  225  A    between atoms: _526  and  _527
REMARK  226  A    between atoms: _526  and  _529
REMARK  227  A    between atoms: _529  and  _530
REMARK  228  A    between atoms: _533  and  _535
REMARK  229  A    between atoms: _535  and  _536
REMARK  230  A    between atoms: _535  and  _538
REMARK  231  A    between atoms: _538  and  _539
REMARK  232  A    between atoms: _539  and  _540
REMARK  233  A    between atoms: _542  and  _544
REMARK  234  A    between atoms: _544  and  _545
REMARK  235  A    between atoms: _544  and  _547
REMARK  236  A    between atoms: _547  and  _548
REMARK  237  A    between atoms: _548  and  _549
REMARK  238  A    between atoms: _549  and  _550
REMARK  239  A    between atoms: _550  and  _551
REMARK  240  A    between atoms: _555  and  _557
REMARK  241  A    between atoms: _557  and  _558
REMARK  242  A    between atoms: _557  and  _560
REMARK  243  A    between atoms: _560  and  _561
REMARK  244  A    between atoms: _564  and  _566
REMARK  245  A    between atoms: _566  and  _567
REMARK  246  A    between atoms: _570  and  _572
REMARK  247  A    between atoms: _572  and  _573
REMARK  248  A    between atoms: _572  and  _575
REMARK  249  A    between atoms: _575  and  _576
REMARK  250  A    between atoms: _579  and  _581
REMARK  251  A    between atoms: _581  and  _582
REMARK  252  A    between atoms: _581  and  _584
REMARK  253  A    between atoms: _584  and  _585
REMARK  254  A    between atoms: _591  and  _593
REMARK  255  A    between atoms: _593  and  _594
REMARK  256  A    between atoms: _596  and  _598
REMARK  257  A    between atoms: _598  and  _599
REMARK  258  A    between atoms: _598  and  _601
REMARK  259  A    between atoms: _601  and  _602
REMARK                            x       y       z     vdW  Elec       q    Type
REMARK                         _______ _______ _______ _____ _____    ______ ____
ROOT
ATOM      1  O   HOH     1       1.781 -18.255  10.823  0.00  0.00    +0.000 OA
ENDROOT
TORSDOF 0
REMARK  Name = ../refined-set-2016/4c2v/4c2v_pocket.pdb
REMARK  259 active torsions:
REMARK  status: ('A' for Active; 'I' for Inactive)
REMARK    1  A    between atoms: _1  and  _3
REMARK    2  A    between atoms: _3  and  _4
REMARK    3  A    between atoms: _3  and  _6
REMARK    4  A    between atoms: _6  and  _7
REMARK    5  A    between atoms: _7  and  _8
REMARK    6  A    between atoms: _8  and  _9
REMARK    7  A    between atoms: _19  and  _20
REMARK    8  A    between atoms: _25  and  _27
REMARK    9  A    between atoms: _27  and  _28
REMARK   10  A    between atoms: _27  and  _30
REMARK   11  A    between atoms: _30  and  _31
REMARK   12  A    between atoms: _34  and  _36
REMARK   13  A    between atoms: _36  and  _37
REMARK   14  A    between atoms: _39  and  _41
REMARK   15  A    between atoms: _41  and  _42
REMARK   16  A    between atoms: _41  and  _44
REMARK   17  A    between atoms: _44  and  _45
REMARK   18  A    between atoms: _45  and  _46
REMARK   19  A    between atoms: _46  and  _47
REMARK   20  A    between atoms: _47  and  _48
REMARK   21  A    between atoms: _52  and  _54
REMARK   22  A    between atoms: _54  and  _55
REMARK   23  A    between atoms: _57  and  _59
REMARK   24  A    between atoms: _59  and  _60
REMARK   25  A    between atoms: _59  and  _62
REMARK   26  A    between atoms: _62  and  _63
REMARK   27  A    between atoms: _63  and  _64
REMARK   28  A    between atoms: _64  and  _65
REMARK   29  A    between atoms: _65  and  _66
REMARK   30  A    between atoms: _70  and  _72
REMARK   31  A    between atoms: _72  and  _73
REMARK   32  A    between atoms: _72  and  _75
REMARK   33  A    between atoms: _75  and  _76
REMARK   34  A    between atoms: _82  and  _84
REMARK   35  A    between atoms: _84  and  _85
REMARK   36  A    between atoms: _87  and  _89
REMARK   37  A    between atoms: _89  and  _90
REMARK   38  A    between atoms: _89  and  _92
REMARK   39  A    between atoms: _92  and  _93
REMARK   40  A    between atoms: _98  and  _100
REMARK   41  A    between atoms: _100  and  _101
REMARK   42  A    between atoms: _100  and  _103
REMARK   43  A    between atoms: _106  and  _108
REMARK   44  A    between atoms: _108  and  _109
REMARK   45  A    between atoms: _108  and  _111
REMARK   46  A    between atoms: _111  and  _112
REMARK   47  A    between atoms: _117  and  _118
REMARK   48  A    between atoms: _120  and  _122
REMARK   49  A    between atoms: _122  and  _123
REMARK   50  A    between atoms: _122  and  _125
REMARK   51  A    between atoms: _125  and  _126
REMARK   52  A    between atoms: _129  and  _131
REMARK   53  A    between atoms: _131  and  _132
REMARK   54  A    between atoms: _135  and  _137
REMARK   55  A    between atoms: _137  and  _138
REMARK   56  A    between atoms: _137  and  _140
REMARK   57  A    between atoms: _140  and  _141
REMARK   58  A    between atoms: _141  and  _142
REMARK   59  A    between atoms: _144  and  _146
REMARK   60  A    between atoms: _146  and  _147
REMARK   61  A    between atoms: _150  and  _152
REMARK   62  A    between atoms: _152  and  _153
REMARK   63  A    between atoms: _152  and  _155
REMARK   64  A    between atoms: _155  and  _156
REMARK   65  A    between atoms: _159  and  _161
REMARK   66  A    between atoms: _161  and  _162
REMARK   67  A    between atoms: _161  and  _164
REMARK   68  A    between atoms: _164  and  _165
REMARK   69  A    between atoms: _165  and  _166
REMARK   70  A    between atoms: _166  and  _167
REMARK   71  A    between atoms: _167  and  _168
REMARK   72  A    between atoms: _172  and  _174
REMARK   73  A    between atoms: _174  and  _175
REMARK   74  A    between atoms: _174  and  _177
REMARK   75  A    between atoms: _180  and  _182
REMARK   76  A    between atoms: _182  and  _183
REMARK   77  A    between atoms: _182  and  _185
REMARK   78  A    between atoms: _185  and  _186
REMARK   79  A    between atoms: _189  and  _191
REMARK   80  A    between atoms: _191  and  _192
REMARK   81  A    between atoms: _191  and  _194
REMARK   82  A    between atoms: _194  and  _195
REMARK   83  A    between atoms: _198  and  _200
REMARK   84  A    between atoms: _200  and  _201
REMARK   85  A    between atoms: _200  and  _203
REMARK   86  A    between atoms: _203  and  _204
REMARK   87  A    between atoms: _204  and  _205
REMARK   88  A    between atoms: _210  and  _212
REMARK   89  A    between atoms: _212  and  _213
REMARK   90  A    between atoms: _212  and  _215
REMARK   91  A    between atoms: _215  and  _216
REMARK   92  A    between atoms: _219  and  _221
REMARK   93  A    between atoms: _221  and  _222
REMARK   94  A    between atoms: _221  and  _224
REMARK   95  A    between atoms: _224  and  _225
REMARK   96  A    between atoms: _225  and  _226
REMARK   97  A    between atoms: _226  and  _227
REMARK   98  A    between atoms: _236  and  _238
REMARK   99  A    between atoms: _238  and  _239
REMARK  100  A    between atoms: _238  and  _241
REMARK  101  A    between atoms: _241  and  _242
REMARK  102  A    between atoms: _242  and  _243
REMARK  103  A    between atoms: _243  and  _244
REMARK  104  A    between atoms: _253  and  _255
REMARK  105  A    between atoms: _255  and  _256
REMARK  106  A    between atoms: _255  and  _258
REMARK  107  A    between atoms: _258  and  _259
REMARK  108  A    between atoms: _259  and  _260
REMARK  109  A    between atoms: _263  and  _265
REMARK  110  A    between atoms: _265  and  _266
REMARK  111  A    between atoms: _265  and  _268
REMARK  112  A    between atoms: _268  and  _269
REMARK  113  A    between atoms: _272  and  _274
REMARK  114  A    between atoms: _274  and  _275
REMARK  115  A    between atoms: _274  and  _277
REMARK  116  A    between atoms: _277  and  _278
REMARK  117  A    between atoms: _278  and  _279
REMARK  118  A    between atoms: _282  and  _284
REMARK  119  A    between atoms: _284  and  _285
REMARK  120  A    between atoms: _284  and  _287
REMARK  121  A    between atoms: _287  and  _288
REMARK  122  A    between atoms: _291  and  _293
REMARK  123  A    between atoms: _293  and  _294
REMARK  124  A    between atoms: _293  and  _296
REMARK  125  A    between atoms: _296  and  _297
REMARK  126  A    between atoms: _297  and  _298
REMARK  127  A    between atoms: _303  and  _305
REMARK  128  A    between atoms: _305  and  _306
REMARK  129  A    between atoms: _305  and  _308
REMARK  130  A    between atoms: _308  and  _309
REMARK  131  A    between atoms: _311  and  _313
REMARK  132  A    between atoms: _313  and  _314
REMARK  133  A    between atoms: _313  and  _316
REMARK  134  A    between atoms: _316  and  _317
REMARK  135  A    between atoms: _320  and  _322
REMARK  136  A    between atoms: _322  and  _323
REMARK  137  A    between atoms: _322  and  _325
REMARK  138  A    between atoms: _325  and  _326
REMARK  139  A    between atoms: _326  and  _327
REMARK  140  A    between atoms: _327  and  _328
REMARK  141  A    between atoms: _337  and  _339
REMARK  142  A    between atoms: _339  and  _340
REMARK  143  A    between atoms: _339  and  _342
REMARK  144  A    between atoms: _342  and  _343
REMARK  145  A    between atoms: _343  and  _344
REMARK  146  A    between atoms: _346  and  _348
REMARK  147  A    between atoms: _348  and  _349
REMARK  148  A    between atoms: _348  and  _351
REMARK  149  A    between atoms: _351  and  _352
REMARK  150  A    between atoms: _355  and  _357
REMARK  151  A    between atoms: _357  and  _358
REMARK  152  A    between atoms: _357  and  _360
REMARK  153  A    between atoms: _360  and  _361
REMARK  154  A    between atoms: _364  and  _366
REMARK  155  A    between atoms: _366  and  _367
REMARK  156  A    between atoms: _366  and  _369
REMARK  157  A    between atoms: _369  and  _370
REMARK  158  A    between atoms: _370  and  _371
REMARK  159  A    between atoms: _373  and  _375
REMARK  160  A    between atoms: _375  and  _376
REMARK  161  A    between atoms: _375  and  _378
REMARK  162  A    between atoms: _378  and  _379
REMARK  163  A    between atoms: _382  and  _384
REMARK  164  A    between atoms: _384  and  _385
REMARK  165  A    between atoms: _384  and  _387
REMARK  166  A    between atoms: _387  and  _388
REMARK  167  A    between atoms: _388  and  _389
REMARK  168  A    between atoms: _392  and  _394
REMARK  169  A    between atoms: _394  and  _395
REMARK  170  A    between atoms: _394  and  _397
REMARK  171  A    between atoms: _397  and  _398
REMARK  172  A    between atoms: _404  and  _406
REMARK  173  A    between atoms: _406  and  _407
REMARK  174  A    between atoms: _411  and  _412
REMARK  175  A    between atoms: _417  and  _419
REMARK  176  A    between atoms: _419  and  _420
REMARK  177  A    between atoms: _419  and  _422
REMARK  178  A    between atoms: _422  and  _423
REMARK  179  A    between atoms: _423  and  _424
REMARK  180  A    between atoms: _424  and  _425
REMARK  181  A    between atoms: _434  and  _436
REMARK  182  A    between atoms: _436  and  _437
REMARK  183  A    between atoms: _439  and  _441
REMARK  184  A    between atoms: _441  and  _442
REMARK  185  A    between atoms: _441  and  _444
REMARK  186  A    between atoms: _444  and  _445
REMARK  187  A    between atoms: _445  and  _446
REMARK  188  A    between atoms: _449  and  _451
REMARK  189  A    between atoms: _451  and  _452
REMARK  190  A    between atoms: _451  and  _454
REMARK  191  A    between atoms: _454  and  _455
REMARK  192  A    between atoms: _458  and  _460
REMARK  193  A    between atoms: _460  and  _461
REMARK  194  A    between atoms: _460  and  _463
REMARK  195  A    between atoms: _463  and  _464
REMARK  196  A    between atoms: _464  and  _465
REMARK  197  A    between atoms: _465  and  _466
REMARK  198  A    between atoms: _466  and  _467
REMARK  199  A    between atoms: _471  and  _473
REMARK  200  A    between atoms: _473  and  _474
REMARK  201  A    between atoms: _473  and  _476
REMARK  202  A    between atoms: _476  and  _477
REMARK  203  A    between atoms: _477  and  _478
REMARK  204  A    between atoms: _481  and  _483
REMARK  205  A    between atoms: _483  and  _484
REMARK  206  A    between atoms: _483  and  _486
REMARK  207  A    between atoms: _486  and  _487
REMARK  208  A    between atoms: _487  and  _488
REMARK  209  A    between atoms: _488  and  _489
REMARK  210  A    between atoms: _489  and  _490
REMARK  211  A    between atoms: _494  and  _496
REMARK  212  A    between atoms: _496  and  _497
REMARK  213  A    between atoms: _496  and  _499
REMARK  214  A    between atoms: _499  and  _500
REMARK  215  A    between atoms: _500  and  _501
REMARK  216  A    between atoms: _504  and  _506
REMARK  217  A    between atoms: _506  and  _507
REMARK  218  A    between atoms: _506  and  _509
REMARK  219  A    between atoms: _509  and  _510
REMARK  220  A    between atoms: _515  and  _517
REMARK  221  A    between atoms: _517  and  _518
REMARK  222  A    between atoms: _517  and  _520
REMARK  223  A    between atoms: _520  and  _521
REMARK  224  A    between atoms: _524  and  _526
REMARK  225  A    between atoms: _526  and  _527
REMARK  226  A    between atoms: _526  and  _529
REMARK  227  A    between atoms: _529  and  _530
REMARK  228  A    between atoms: _533  and  _535
REMARK  229  A    between atoms: _535  and  _536
REMARK  230  A    between atoms: _535  and  _538
REMARK  231  A    between atoms: _538  and  _539
REMARK  232  A    between atoms: _539  and  _540
REMARK  233  A    between atoms: _542  and  _544
REMARK  234  A    between atoms: _544  and  _545
REMARK  235  A    between atoms: _544  and  _547
REMARK  236  A    between atoms: _547  and  _548
REMARK  237  A    between atoms: _548  and  _549
REMARK  238  A    between atoms: _549  and  _550
REMARK  239  A    between atoms: _550  and  _551
REMARK  240  A    between atoms: _555  and  _557
REMARK  241  A    between atoms: _557  and  _558
REMARK  242  A    between atoms: _557  and  _560
REMARK  243  A    between atoms: _560  and  _561
REMARK  244  A    between atoms: _564  and  _566
REMARK  245  A    between atoms: _566  and  _567
REMARK  246  A    between atoms: _570  and  _572
REMARK  247  A    between atoms: _572  and  _573
REMARK  248  A    between atoms: _572  and  _575
REMARK  249  A    between atoms: _575  and  _576
REMARK  250  A    between atoms: _579  and  _581
REMARK  251  A    between atoms: _581  and  _582
REMARK  252  A    between atoms: _581  and  _584
REMARK  253  A    between atoms: _584  and  _585
REMARK  254  A    between atoms: _591  and  _593
REMARK  255  A    between atoms: _593  and  _594
REMARK  256  A    between atoms: _596  and  _598
REMARK  257  A    between atoms: _598  and  _599
REMARK  258  A    between atoms: _598  and  _601
REMARK  259  A    between atoms: _601  and  _602
REMARK                            x       y       z     vdW  Elec       q    Type
REMARK                         _______ _______ _______ _____ _____    ______ ____
ROOT
ATOM      1  O   HOH     1       1.861 -21.057  10.148  0.00  0.00    +0.000 OA
ENDROOT
TORSDOF 0
REMARK  Name = ../refined-set-2016/4c2v/4c2v_pocket.pdb
REMARK  259 active torsions:
REMARK  status: ('A' for Active; 'I' for Inactive)
REMARK    1  A    between atoms: _1  and  _3
REMARK    2  A    between atoms: _3  and  _4
REMARK    3  A    between atoms: _3  and  _6
REMARK    4  A    between atoms: _6  and  _7
REMARK    5  A    between atoms: _7  and  _8
REMARK    6  A    between atoms: _8  and  _9
REMARK    7  A    between atoms: _19  and  _20
REMARK    8  A    between atoms: _25  and  _27
REMARK    9  A    between atoms: _27  and  _28
REMARK   10  A    between atoms: _27  and  _30
REMARK   11  A    between atoms: _30  and  _31
REMARK   12  A    between atoms: _34  and  _36
REMARK   13  A    between atoms: _36  and  _37
REMARK   14  A    between atoms: _39  and  _41
REMARK   15  A    between atoms: _41  and  _42
REMARK   16  A    between atoms: _41  and  _44
REMARK   17  A    between atoms: _44  and  _45
REMARK   18  A    between atoms: _45  and  _46
REMARK   19  A    between atoms: _46  and  _47
REMARK   20  A    between atoms: _47  and  _48
REMARK   21  A    between atoms: _52  and  _54
REMARK   22  A    between atoms: _54  and  _55
REMARK   23  A    between atoms: _57  and  _59
REMARK   24  A    between atoms: _59  and  _60
REMARK   25  A    between atoms: _59  and  _62
REMARK   26  A    between atoms: _62  and  _63
REMARK   27  A    between atoms: _63  and  _64
REMARK   28  A    between atoms: _64  and  _65
REMARK   29  A    between atoms: _65  and  _66
REMARK   30  A    between atoms: _70  and  _72
REMARK   31  A    between atoms: _72  and  _73
REMARK   32  A    between atoms: _72  and  _75
REMARK   33  A    between atoms: _75  and  _76
REMARK   34  A    between atoms: _82  and  _84
REMARK   35  A    between atoms: _84  and  _85
REMARK   36  A    between atoms: _87  and  _89
REMARK   37  A    between atoms: _89  and  _90
REMARK   38  A    between atoms: _89  and  _92
REMARK   39  A    between atoms: _92  and  _93
REMARK   40  A    between atoms: _98  and  _100
REMARK   41  A    between atoms: _100  and  _101
REMARK   42  A    between atoms: _100  and  _103
REMARK   43  A    between atoms: _106  and  _108
REMARK   44  A    between atoms: _108  and  _109
REMARK   45  A    between atoms: _108  and  _111
REMARK   46  A    between atoms: _111  and  _112
REMARK   47  A    between atoms: _117  and  _118
REMARK   48  A    between atoms: _120  and  _122
REMARK   49  A    between atoms: _122  and  _123
REMARK   50  A    between atoms: _122  and  _125
REMARK   51  A    between atoms: _125  and  _126
REMARK   52  A    between atoms: _129  and  _131
REMARK   53  A    between atoms: _131  and  _132
REMARK   54  A    between atoms: _135  and  _137
REMARK   55  A    between atoms: _137  and  _138
REMARK   56  A    between atoms: _137  and  _140
REMARK   57  A    between atoms: _140  and  _141
REMARK   58  A    between atoms: _141  and  _142
REMARK   59  A    between atoms: _144  and  _146
REMARK   60  A    between atoms: _146  and  _147
REMARK   61  A    between atoms: _150  and  _152
REMARK   62  A    between atoms: _152  and  _153
REMARK   63  A    between atoms: _152  and  _155
REMARK   64  A    between atoms: _155  and  _156
REMARK   65  A    between atoms: _159  and  _161
REMARK   66  A    between atoms: _161  and  _162
REMARK   67  A    between atoms: _161  and  _164
REMARK   68  A    between atoms: _164  and  _165
REMARK   69  A    between atoms: _165  and  _166
REMARK   70  A    between atoms: _166  and  _167
REMARK   71  A    between atoms: _167  and  _168
REMARK   72  A    between atoms: _172  and  _174
REMARK   73  A    between atoms: _174  and  _175
REMARK   74  A    between atoms: _174  and  _177
REMARK   75  A    between atoms: _180  and  _182
REMARK   76  A    between atoms: _182  and  _183
REMARK   77  A    between atoms: _182  and  _185
REMARK   78  A    between atoms: _185  and  _186
REMARK   79  A    between atoms: _189  and  _191
REMARK   80  A    between atoms: _191  and  _192
REMARK   81  A    between atoms: _191  and  _194
REMARK   82  A    between atoms: _194  and  _195
REMARK   83  A    between atoms: _198  and  _200
REMARK   84  A    between atoms: _200  and  _201
REMARK   85  A    between atoms: _200  and  _203
REMARK   86  A    between atoms: _203  and  _204
REMARK   87  A    between atoms: _204  and  _205
REMARK   88  A    between atoms: _210  and  _212
REMARK   89  A    between atoms: _212  and  _213
REMARK   90  A    between atoms: _212  and  _215
REMARK   91  A    between atoms: _215  and  _216
REMARK   92  A    between atoms: _219  and  _221
REMARK   93  A    between atoms: _221  and  _222
REMARK   94  A    between atoms: _221  and  _224
REMARK   95  A    between atoms: _224  and  _225
REMARK   96  A    between atoms: _225  and  _226
REMARK   97  A    between atoms: _226  and  _227
REMARK   98  A    between atoms: _236  and  _238
REMARK   99  A    between atoms: _238  and  _239
REMARK  100  A    between atoms: _238  and  _241
REMARK  101  A    between atoms: _241  and  _242
REMARK  102  A    between atoms: _242  and  _243
REMARK  103  A    between atoms: _243  and  _244
REMARK  104  A    between atoms: _253  and  _255
REMARK  105  A    between atoms: _255  and  _256
REMARK  106  A    between atoms: _255  and  _258
REMARK  107  A    between atoms: _258  and  _259
REMARK  108  A    between atoms: _259  and  _260
REMARK  109  A    between atoms: _263  and  _265
REMARK  110  A    between atoms: _265  and  _266
REMARK  111  A    between atoms: _265  and  _268
REMARK  112  A    between atoms: _268  and  _269
REMARK  113  A    between atoms: _272  and  _274
REMARK  114  A    between atoms: _274  and  _275
REMARK  115  A    between atoms: _274  and  _277
REMARK  116  A    between atoms: _277  and  _278
REMARK  117  A    between atoms: _278  and  _279
REMARK  118  A    between atoms: _282  and  _284
REMARK  119  A    between atoms: _284  and  _285
REMARK  120  A    between atoms: _284  and  _287
REMARK  121  A    between atoms: _287  and  _288
REMARK  122  A    between atoms: _291  and  _293
REMARK  123  A    between atoms: _293  and  _294
REMARK  124  A    between atoms: _293  and  _296
REMARK  125  A    between atoms: _296  and  _297
REMARK  126  A    between atoms: _297  and  _298
REMARK  127  A    between atoms: _303  and  _305
REMARK  128  A    between atoms: _305  and  _306
REMARK  129  A    between atoms: _305  and  _308
REMARK  130  A    between atoms: _308  and  _309
REMARK  131  A    between atoms: _311  and  _313
REMARK  132  A    between atoms: _313  and  _314
REMARK  133  A    between atoms: _313  and  _316
REMARK  134  A    between atoms: _316  and  _317
REMARK  135  A    between atoms: _320  and  _322
REMARK  136  A    between atoms: _322  and  _323
REMARK  137  A    between atoms: _322  and  _325
REMARK  138  A    between atoms: _325  and  _326
REMARK  139  A    between atoms: _326  and  _327
REMARK  140  A    between atoms: _327  and  _328
REMARK  141  A    between atoms: _337  and  _339
REMARK  142  A    between atoms: _339  and  _340
REMARK  143  A    between atoms: _339  and  _342
REMARK  144  A    between atoms: _342  and  _343
REMARK  145  A    between atoms: _343  and  _344
REMARK  146  A    between atoms: _346  and  _348
REMARK  147  A    between atoms: _348  and  _349
REMARK  148  A    between atoms: _348  and  _351
REMARK  149  A    between atoms: _351  and  _352
REMARK  150  A    between atoms: _355  and  _357
REMARK  151  A    between atoms: _357  and  _358
REMARK  152  A    between atoms: _357  and  _360
REMARK  153  A    between atoms: _360  and  _361
REMARK  154  A    between atoms: _364  and  _366
REMARK  155  A    between atoms: _366  and  _367
REMARK  156  A    between atoms: _366  and  _369
REMARK  157  A    between atoms: _369  and  _370
REMARK  158  A    between atoms: _370  and  _371
REMARK  159  A    between atoms: _373  and  _375
REMARK  160  A    between atoms: _375  and  _376
REMARK  161  A    between atoms: _375  and  _378
REMARK  162  A    between atoms: _378  and  _379
REMARK  163  A    between atoms: _382  and  _384
REMARK  164  A    between atoms: _384  and  _385
REMARK  165  A    between atoms: _384  and  _387
REMARK  166  A    between atoms: _387  and  _388
REMARK  167  A    between atoms: _388  and  _389
REMARK  168  A    between atoms: _392  and  _394
REMARK  169  A    between atoms: _394  and  _395
REMARK  170  A    between atoms: _394  and  _397
REMARK  171  A    between atoms: _397  and  _398
REMARK  172  A    between atoms: _404  and  _406
REMARK  173  A    between atoms: _406  and  _407
REMARK  174  A    between atoms: _411  and  _412
REMARK  175  A    between atoms: _417  and  _419
REMARK  176  A    between atoms: _419  and  _420
REMARK  177  A    between atoms: _419  and  _422
REMARK  178  A    between atoms: _422  and  _423
REMARK  179  A    between atoms: _423  and  _424
REMARK  180  A    between atoms: _424  and  _425
REMARK  181  A    between atoms: _434  and  _436
REMARK  182  A    between atoms: _436  and  _437
REMARK  183  A    between atoms: _439  and  _441
REMARK  184  A    between atoms: _441  and  _442
REMARK  185  A    between atoms: _441  and  _444
REMARK  186  A    between atoms: _444  and  _445
REMARK  187  A    between atoms: _445  and  _446
REMARK  188  A    between atoms: _449  and  _451
REMARK  189  A    between atoms: _451  and  _452
REMARK  190  A    between atoms: _451  and  _454
REMARK  191  A    between atoms: _454  and  _455
REMARK  192  A    between atoms: _458  and  _460
REMARK  193  A    between atoms: _460  and  _461
REMARK  194  A    between atoms: _460  and  _463
REMARK  195  A    between atoms: _463  and  _464
REMARK  196  A    between atoms: _464  and  _465
REMARK  197  A    between atoms: _465  and  _466
REMARK  198  A    between atoms: _466  and  _467
REMARK  199  A    between atoms: _471  and  _473
REMARK  200  A    between atoms: _473  and  _474
REMARK  201  A    between atoms: _473  and  _476
REMARK  202  A    between atoms: _476  and  _477
REMARK  203  A    between atoms: _477  and  _478
REMARK  204  A    between atoms: _481  and  _483
REMARK  205  A    between atoms: _483  and  _484
REMARK  206  A    between atoms: _483  and  _486
REMARK  207  A    between atoms: _486  and  _487
REMARK  208  A    between atoms: _487  and  _488
REMARK  209  A    between atoms: _488  and  _489
REMARK  210  A    between atoms: _489  and  _490
REMARK  211  A    between atoms: _494  and  _496
REMARK  212  A    between atoms: _496  and  _497
REMARK  213  A    between atoms: _496  and  _499
REMARK  214  A    between atoms: _499  and  _500
REMARK  215  A    between atoms: _500  and  _501
REMARK  216  A    between atoms: _504  and  _506
REMARK  217  A    between atoms: _506  and  _507
REMARK  218  A    between atoms: _506  and  _509
REMARK  219  A    between atoms: _509  and  _510
REMARK  220  A    between atoms: _515  and  _517
REMARK  221  A    between atoms: _517  and  _518
REMARK  222  A    between atoms: _517  and  _520
REMARK  223  A    between atoms: _520  and  _521
REMARK  224  A    between atoms: _524  and  _526
REMARK  225  A    between atoms: _526  and  _527
REMARK  226  A    between atoms: _526  and  _529
REMARK  227  A    between atoms: _529  and  _530
REMARK  228  A    between atoms: _533  and  _535
REMARK  229  A    between atoms: _535  and  _536
REMARK  230  A    between atoms: _535  and  _538
REMARK  231  A    between atoms: _538  and  _539
REMARK  232  A    between atoms: _539  and  _540
REMARK  233  A    between atoms: _542  and  _544
REMARK  234  A    between atoms: _544  and  _545
REMARK  235  A    between atoms: _544  and  _547
REMARK  236  A    between atoms: _547  and  _548
REMARK  237  A    between atoms: _548  and  _549
REMARK  238  A    between atoms: _549  and  _550
REMARK  239  A    between atoms: _550  and  _551
REMARK  240  A    between atoms: _555  and  _557
REMARK  241  A    between atoms: _557  and  _558
REMARK  242  A    between atoms: _557  and  _560
REMARK  243  A    between atoms: _560  and  _561
REMARK  244  A    between atoms: _564  and  _566
REMARK  245  A    between atoms: _566  and  _567
REMARK  246  A    between atoms: _570  and  _572
REMARK  247  A    between atoms: _572  and  _573
REMARK  248  A    between atoms: _572  and  _575
REMARK  249  A    between atoms: _575  and  _576
REMARK  250  A    between atoms: _579  and  _581
REMARK  251  A    between atoms: _581  and  _582
REMARK  252  A    between atoms: _581  and  _584
REMARK  253  A    between atoms: _584  and  _585
REMARK  254  A    between atoms: _591  and  _593
REMARK  255  A    between atoms: _593  and  _594
REMARK  256  A    between atoms: _596  and  _598
REMARK  257  A    between atoms: _598  and  _599
REMARK  258  A    between atoms: _598  and  _601
REMARK  259  A    between atoms: _601  and  _602
REMARK                            x       y       z     vdW  Elec       q    Type
REMARK                         _______ _______ _______ _____ _____    ______ ____
ROOT
ATOM      1  O   HOH     1      16.243 -24.198  11.516  0.00  0.00    +0.000 OA
ENDROOT
TORSDOF 0
REMARK  Name = ../refined-set-2016/4c2v/4c2v_pocket.pdb
REMARK  259 active torsions:
REMARK  status: ('A' for Active; 'I' for Inactive)
REMARK    1  A    between atoms: _1  and  _3
REMARK    2  A    between atoms: _3  and  _4
REMARK    3  A    between atoms: _3  and  _6
REMARK    4  A    between atoms: _6  and  _7
REMARK    5  A    between atoms: _7  and  _8
REMARK    6  A    between atoms: _8  and  _9
REMARK    7  A    between atoms: _19  and  _20
REMARK    8  A    between atoms: _25  and  _27
REMARK    9  A    between atoms: _27  and  _28
REMARK   10  A    between atoms: _27  and  _30
REMARK   11  A    between atoms: _30  and  _31
REMARK   12  A    between atoms: _34  and  _36
REMARK   13  A    between atoms: _36  and  _37
REMARK   14  A    between atoms: _39  and  _41
REMARK   15  A    between atoms: _41  and  _42
REMARK   16  A    between atoms: _41  and  _44
REMARK   17  A    between atoms: _44  and  _45
REMARK   18  A    between atoms: _45  and  _46
REMARK   19  A    between atoms: _46  and  _47
REMARK   20  A    between atoms: _47  and  _48
REMARK   21  A    between atoms: _52  and  _54
REMARK   22  A    between atoms: _54  and  _55
REMARK   23  A    between atoms: _57  and  _59
REMARK   24  A    between atoms: _59  and  _60
REMARK   25  A    between atoms: _59  and  _62
REMARK   26  A    between atoms: _62  and  _63
REMARK   27  A    between atoms: _63  and  _64
REMARK   28  A    between atoms: _64  and  _65
REMARK   29  A    between atoms: _65  and  _66
REMARK   30  A    between atoms: _70  and  _72
REMARK   31  A    between atoms: _72  and  _73
REMARK   32  A    between atoms: _72  and  _75
REMARK   33  A    between atoms: _75  and  _76
REMARK   34  A    between atoms: _82  and  _84
REMARK   35  A    between atoms: _84  and  _85
REMARK   36  A    between atoms: _87  and  _89
REMARK   37  A    between atoms: _89  and  _90
REMARK   38  A    between atoms: _89  and  _92
REMARK   39  A    between atoms: _92  and  _93
REMARK   40  A    between atoms: _98  and  _100
REMARK   41  A    between atoms: _100  and  _101
REMARK   42  A    between atoms: _100  and  _103
REMARK   43  A    between atoms: _106  and  _108
REMARK   44  A    between atoms: _108  and  _109
REMARK   45  A    between atoms: _108  and  _111
REMARK   46  A    between atoms: _111  and  _112
REMARK   47  A    between atoms: _117  and  _118
REMARK   48  A    between atoms: _120  and  _122
REMARK   49  A    between atoms: _122  and  _123
REMARK   50  A    between atoms: _122  and  _125
REMARK   51  A    between atoms: _125  and  _126
REMARK   52  A    between atoms: _129  and  _131
REMARK   53  A    between atoms: _131  and  _132
REMARK   54  A    between atoms: _135  and  _137
REMARK   55  A    between atoms: _137  and  _138
REMARK   56  A    between atoms: _137  and  _140
REMARK   57  A    between atoms: _140  and  _141
REMARK   58  A    between atoms: _141  and  _142
REMARK   59  A    between atoms: _144  and  _146
REMARK   60  A    between atoms: _146  and  _147
REMARK   61  A    between atoms: _150  and  _152
REMARK   62  A    between atoms: _152  and  _153
REMARK   63  A    between atoms: _152  and  _155
REMARK   64  A    between atoms: _155  and  _156
REMARK   65  A    between atoms: _159  and  _161
REMARK   66  A    between atoms: _161  and  _162
REMARK   67  A    between atoms: _161  and  _164
REMARK   68  A    between atoms: _164  and  _165
REMARK   69  A    between atoms: _165  and  _166
REMARK   70  A    between atoms: _166  and  _167
REMARK   71  A    between atoms: _167  and  _168
REMARK   72  A    between atoms: _172  and  _174
REMARK   73  A    between atoms: _174  and  _175
REMARK   74  A    between atoms: _174  and  _177
REMARK   75  A    between atoms: _180  and  _182
REMARK   76  A    between atoms: _182  and  _183
REMARK   77  A    between atoms: _182  and  _185
REMARK   78  A    between atoms: _185  and  _186
REMARK   79  A    between atoms: _189  and  _191
REMARK   80  A    between atoms: _191  and  _192
REMARK   81  A    between atoms: _191  and  _194
REMARK   82  A    between atoms: _194  and  _195
REMARK   83  A    between atoms: _198  and  _200
REMARK   84  A    between atoms: _200  and  _201
REMARK   85  A    between atoms: _200  and  _203
REMARK   86  A    between atoms: _203  and  _204
REMARK   87  A    between atoms: _204  and  _205
REMARK   88  A    between atoms: _210  and  _212
REMARK   89  A    between atoms: _212  and  _213
REMARK   90  A    between atoms: _212  and  _215
REMARK   91  A    between atoms: _215  and  _216
REMARK   92  A    between atoms: _219  and  _221
REMARK   93  A    between atoms: _221  and  _222
REMARK   94  A    between atoms: _221  and  _224
REMARK   95  A    between atoms: _224  and  _225
REMARK   96  A    between atoms: _225  and  _226
REMARK   97  A    between atoms: _226  and  _227
REMARK   98  A    between atoms: _236  and  _238
REMARK   99  A    between atoms: _238  and  _239
REMARK  100  A    between atoms: _238  and  _241
REMARK  101  A    between atoms: _241  and  _242
REMARK  102  A    between atoms: _242  and  _243
REMARK  103  A    between atoms: _243  and  _244
REMARK  104  A    between atoms: _253  and  _255
REMARK  105  A    between atoms: _255  and  _256
REMARK  106  A    between atoms: _255  and  _258
REMARK  107  A    between atoms: _258  and  _259
REMARK  108  A    between atoms: _259  and  _260
REMARK  109  A    between atoms: _263  and  _265
REMARK  110  A    between atoms: _265  and  _266
REMARK  111  A    between atoms: _265  and  _268
REMARK  112  A    between atoms: _268  and  _269
REMARK  113  A    between atoms: _272  and  _274
REMARK  114  A    between atoms: _274  and  _275
REMARK  115  A    between atoms: _274  and  _277
REMARK  116  A    between atoms: _277  and  _278
REMARK  117  A    between atoms: _278  and  _279
REMARK  118  A    between atoms: _282  and  _284
REMARK  119  A    between atoms: _284  and  _285
REMARK  120  A    between atoms: _284  and  _287
REMARK  121  A    between atoms: _287  and  _288
REMARK  122  A    between atoms: _291  and  _293
REMARK  123  A    between atoms: _293  and  _294
REMARK  124  A    between atoms: _293  and  _296
REMARK  125  A    between atoms: _296  and  _297
REMARK  126  A    between atoms: _297  and  _298
REMARK  127  A    between atoms: _303  and  _305
REMARK  128  A    between atoms: _305  and  _306
REMARK  129  A    between atoms: _305  and  _308
REMARK  130  A    between atoms: _308  and  _309
REMARK  131  A    between atoms: _311  and  _313
REMARK  132  A    between atoms: _313  and  _314
REMARK  133  A    between atoms: _313  and  _316
REMARK  134  A    between atoms: _316  and  _317
REMARK  135  A    between atoms: _320  and  _322
REMARK  136  A    between atoms: _322  and  _323
REMARK  137  A    between atoms: _322  and  _325
REMARK  138  A    between atoms: _325  and  _326
REMARK  139  A    between atoms: _326  and  _327
REMARK  140  A    between atoms: _327  and  _328
REMARK  141  A    between atoms: _337  and  _339
REMARK  142  A    between atoms: _339  and  _340
REMARK  143  A    between atoms: _339  and  _342
REMARK  144  A    between atoms: _342  and  _343
REMARK  145  A    between atoms: _343  and  _344
REMARK  146  A    between atoms: _346  and  _348
REMARK  147  A    between atoms: _348  and  _349
REMARK  148  A    between atoms: _348  and  _351
REMARK  149  A    between atoms: _351  and  _352
REMARK  150  A    between atoms: _355  and  _357
REMARK  151  A    between atoms: _357  and  _358
REMARK  152  A    between atoms: _357  and  _360
REMARK  153  A    between atoms: _360  and  _361
REMARK  154  A    between atoms: _364  and  _366
REMARK  155  A    between atoms: _366  and  _367
REMARK  156  A    between atoms: _366  and  _369
REMARK  157  A    between atoms: _369  and  _370
REMARK  158  A    between atoms: _370  and  _371
REMARK  159  A    between atoms: _373  and  _375
REMARK  160  A    between atoms: _375  and  _376
REMARK  161  A    between atoms: _375  and  _378
REMARK  162  A    between atoms: _378  and  _379
REMARK  163  A    between atoms: _382  and  _384
REMARK  164  A    between atoms: _384  and  _385
REMARK  165  A    between atoms: _384  and  _387
REMARK  166  A    between atoms: _387  and  _388
REMARK  167  A    between atoms: _388  and  _389
REMARK  168  A    between atoms: _392  and  _394
REMARK  169  A    between atoms: _394  and  _395
REMARK  170  A    between atoms: _394  and  _397
REMARK  171  A    between atoms: _397  and  _398
REMARK  172  A    between atoms: _404  and  _406
REMARK  173  A    between atoms: _406  and  _407
REMARK  174  A    between atoms: _411  and  _412
REMARK  175  A    between atoms: _417  and  _419
REMARK  176  A    between atoms: _419  and  _420
REMARK  177  A    between atoms: _419  and  _422
REMARK  178  A    between atoms: _422  and  _423
REMARK  179  A    between atoms: _423  and  _424
REMARK  180  A    between atoms: _424  and  _425
REMARK  181  A    between atoms: _434  and  _436
REMARK  182  A    between atoms: _436  and  _437
REMARK  183  A    between atoms: _439  and  _441
REMARK  184  A    between atoms: _441  and  _442
REMARK  185  A    between atoms: _441  and  _444
REMARK  186  A    between atoms: _444  and  _445
REMARK  187  A    between atoms: _445  and  _446
REMARK  188  A    between atoms: _449  and  _451
REMARK  189  A    between atoms: _451  and  _452
REMARK  190  A    between atoms: _451  and  _454
REMARK  191  A    between atoms: _454  and  _455
REMARK  192  A    between atoms: _458  and  _460
REMARK  193  A    between atoms: _460  and  _461
REMARK  194  A    between atoms: _460  and  _463
REMARK  195  A    between atoms: _463  and  _464
REMARK  196  A    between atoms: _464  and  _465
REMARK  197  A    between atoms: _465  and  _466
REMARK  198  A    between atoms: _466  and  _467
REMARK  199  A    between atoms: _471  and  _473
REMARK  200  A    between atoms: _473  and  _474
REMARK  201  A    between atoms: _473  and  _476
REMARK  202  A    between atoms: _476  and  _477
REMARK  203  A    between atoms: _477  and  _478
REMARK  204  A    between atoms: _481  and  _483
REMARK  205  A    between atoms: _483  and  _484
REMARK  206  A    between atoms: _483  and  _486
REMARK  207  A    between atoms: _486  and  _487
REMARK  208  A    between atoms: _487  and  _488
REMARK  209  A    between atoms: _488  and  _489
REMARK  210  A    between atoms: _489  and  _490
REMARK  211  A    between atoms: _494  and  _496
REMARK  212  A    between atoms: _496  and  _497
REMARK  213  A    between atoms: _496  and  _499
REMARK  214  A    between atoms: _499  and  _500
REMARK  215  A    between atoms: _500  and  _501
REMARK  216  A    between atoms: _504  and  _506
REMARK  217  A    between atoms: _506  and  _507
REMARK  218  A    between atoms: _506  and  _509
REMARK  219  A    between atoms: _509  and  _510
REMARK  220  A    between atoms: _515  and  _517
REMARK  221  A    between atoms: _517  and  _518
REMARK  222  A    between atoms: _517  and  _520
REMARK  223  A    between atoms: _520  and  _521
REMARK  224  A    between atoms: _524  and  _526
REMARK  225  A    between atoms: _526  and  _527
REMARK  226  A    between atoms: _526  and  _529
REMARK  227  A    between atoms: _529  and  _530
REMARK  228  A    between atoms: _533  and  _535
REMARK  229  A    between atoms: _535  and  _536
REMARK  230  A    between atoms: _535  and  _538
REMARK  231  A    between atoms: _538  and  _539
REMARK  232  A    between atoms: _539  and  _540
REMARK  233  A    between atoms: _542  and  _544
REMARK  234  A    between atoms: _544  and  _545
REMARK  235  A    between atoms: _544  and  _547
REMARK  236  A    between atoms: _547  and  _548
REMARK  237  A    between atoms: _548  and  _549
REMARK  238  A    between atoms: _549  and  _550
REMARK  239  A    between atoms: _550  and  _551
REMARK  240  A    between atoms: _555  and  _557
REMARK  241  A    between atoms: _557  and  _558
REMARK  242  A    between atoms: _557  and  _560
REMARK  243  A    between atoms: _560  and  _561
REMARK  244  A    between atoms: _564  and  _566
REMARK  245  A    between atoms: _566  and  _567
REMARK  246  A    between atoms: _570  and  _572
REMARK  247  A    between atoms: _572  and  _573
REMARK  248  A    between atoms: _572  and  _575
REMARK  249  A    between atoms: _575  and  _576
REMARK  250  A    between atoms: _579  and  _581
REMARK  251  A    between atoms: _581  and  _582
REMARK  252  A    between atoms: _581  and  _584
REMARK  253  A    between atoms: _584  and  _585
REMARK  254  A    between atoms: _591  and  _593
REMARK  255  A    between atoms: _593  and  _594
REMARK  256  A    between atoms: _596  and  _598
REMARK  257  A    between atoms: _598  and  _599
REMARK  258  A    between atoms: _598  and  _601
REMARK  259  A    between atoms: _601  and  _602
REMARK                            x       y       z     vdW  Elec       q    Type
REMARK                         _______ _______ _______ _____ _____    ______ ____
ROOT
ATOM      1  O   HOH     1      18.103 -21.711   9.446  0.00  0.00    +0.000 OA
ENDROOT
TORSDOF 0
REMARK  Name = ../refined-set-2016/4c2v/4c2v_pocket.pdb
REMARK  259 active torsions:
REMARK  status: ('A' for Active; 'I' for Inactive)
REMARK    1  A    between atoms: _1  and  _3
REMARK    2  A    between atoms: _3  and  _4
REMARK    3  A    between atoms: _3  and  _6
REMARK    4  A    between atoms: _6  and  _7
REMARK    5  A    between atoms: _7  and  _8
REMARK    6  A    between atoms: _8  and  _9
REMARK    7  A    between atoms: _19  and  _20
REMARK    8  A    between atoms: _25  and  _27
REMARK    9  A    between atoms: _27  and  _28
REMARK   10  A    between atoms: _27  and  _30
REMARK   11  A    between atoms: _30  and  _31
REMARK   12  A    between atoms: _34  and  _36
REMARK   13  A    between atoms: _36  and  _37
REMARK   14  A    between atoms: _39  and  _41
REMARK   15  A    between atoms: _41  and  _42
REMARK   16  A    between atoms: _41  and  _44
REMARK   17  A    between atoms: _44  and  _45
REMARK   18  A    between atoms: _45  and  _46
REMARK   19  A    between atoms: _46  and  _47
REMARK   20  A    between atoms: _47  and  _48
REMARK   21  A    between atoms: _52  and  _54
REMARK   22  A    between atoms: _54  and  _55
REMARK   23  A    between atoms: _57  and  _59
REMARK   24  A    between atoms: _59  and  _60
REMARK   25  A    between atoms: _59  and  _62
REMARK   26  A    between atoms: _62  and  _63
REMARK   27  A    between atoms: _63  and  _64
REMARK   28  A    between atoms: _64  and  _65
REMARK   29  A    between atoms: _65  and  _66
REMARK   30  A    between atoms: _70  and  _72
REMARK   31  A    between atoms: _72  and  _73
REMARK   32  A    between atoms: _72  and  _75
REMARK   33  A    between atoms: _75  and  _76
REMARK   34  A    between atoms: _82  and  _84
REMARK   35  A    between atoms: _84  and  _85
REMARK   36  A    between atoms: _87  and  _89
REMARK   37  A    between atoms: _89  and  _90
REMARK   38  A    between atoms: _89  and  _92
REMARK   39  A    between atoms: _92  and  _93
REMARK   40  A    between atoms: _98  and  _100
REMARK   41  A    between atoms: _100  and  _101
REMARK   42  A    between atoms: _100  and  _103
REMARK   43  A    between atoms: _106  and  _108
REMARK   44  A    between atoms: _108  and  _109
REMARK   45  A    between atoms: _108  and  _111
REMARK   46  A    between atoms: _111  and  _112
REMARK   47  A    between atoms: _117  and  _118
REMARK   48  A    between atoms: _120  and  _122
REMARK   49  A    between atoms: _122  and  _123
REMARK   50  A    between atoms: _122  and  _125
REMARK   51  A    between atoms: _125  and  _126
REMARK   52  A    between atoms: _129  and  _131
REMARK   53  A    between atoms: _131  and  _132
REMARK   54  A    between atoms: _135  and  _137
REMARK   55  A    between atoms: _137  and  _138
REMARK   56  A    between atoms: _137  and  _140
REMARK   57  A    between atoms: _140  and  _141
REMARK   58  A    between atoms: _141  and  _142
REMARK   59  A    between atoms: _144  and  _146
REMARK   60  A    between atoms: _146  and  _147
REMARK   61  A    between atoms: _150  and  _152
REMARK   62  A    between atoms: _152  and  _153
REMARK   63  A    between atoms: _152  and  _155
REMARK   64  A    between atoms: _155  and  _156
REMARK   65  A    between atoms: _159  and  _161
REMARK   66  A    between atoms: _161  and  _162
REMARK   67  A    between atoms: _161  and  _164
REMARK   68  A    between atoms: _164  and  _165
REMARK   69  A    between atoms: _165  and  _166
REMARK   70  A    between atoms: _166  and  _167
REMARK   71  A    between atoms: _167  and  _168
REMARK   72  A    between atoms: _172  and  _174
REMARK   73  A    between atoms: _174  and  _175
REMARK   74  A    between atoms: _174  and  _177
REMARK   75  A    between atoms: _180  and  _182
REMARK   76  A    between atoms: _182  and  _183
REMARK   77  A    between atoms: _182  and  _185
REMARK   78  A    between atoms: _185  and  _186
REMARK   79  A    between atoms: _189  and  _191
REMARK   80  A    between atoms: _191  and  _192
REMARK   81  A    between atoms: _191  and  _194
REMARK   82  A    between atoms: _194  and  _195
REMARK   83  A    between atoms: _198  and  _200
REMARK   84  A    between atoms: _200  and  _201
REMARK   85  A    between atoms: _200  and  _203
REMARK   86  A    between atoms: _203  and  _204
REMARK   87  A    between atoms: _204  and  _205
REMARK   88  A    between atoms: _210  and  _212
REMARK   89  A    between atoms: _212  and  _213
REMARK   90  A    between atoms: _212  and  _215
REMARK   91  A    between atoms: _215  and  _216
REMARK   92  A    between atoms: _219  and  _221
REMARK   93  A    between atoms: _221  and  _222
REMARK   94  A    between atoms: _221  and  _224
REMARK   95  A    between atoms: _224  and  _225
REMARK   96  A    between atoms: _225  and  _226
REMARK   97  A    between atoms: _226  and  _227
REMARK   98  A    between atoms: _236  and  _238
REMARK   99  A    between atoms: _238  and  _239
REMARK  100  A    between atoms: _238  and  _241
REMARK  101  A    between atoms: _241  and  _242
REMARK  102  A    between atoms: _242  and  _243
REMARK  103  A    between atoms: _243  and  _244
REMARK  104  A    between atoms: _253  and  _255
REMARK  105  A    between atoms: _255  and  _256
REMARK  106  A    between atoms: _255  and  _258
REMARK  107  A    between atoms: _258  and  _259
REMARK  108  A    between atoms: _259  and  _260
REMARK  109  A    between atoms: _263  and  _265
REMARK  110  A    between atoms: _265  and  _266
REMARK  111  A    between atoms: _265  and  _268
REMARK  112  A    between atoms: _268  and  _269
REMARK  113  A    between atoms: _272  and  _274
REMARK  114  A    between atoms: _274  and  _275
REMARK  115  A    between atoms: _274  and  _277
REMARK  116  A    between atoms: _277  and  _278
REMARK  117  A    between atoms: _278  and  _279
REMARK  118  A    between atoms: _282  and  _284
REMARK  119  A    between atoms: _284  and  _285
REMARK  120  A    between atoms: _284  and  _287
REMARK  121  A    between atoms: _287  and  _288
REMARK  122  A    between atoms: _291  and  _293
REMARK  123  A    between atoms: _293  and  _294
REMARK  124  A    between atoms: _293  and  _296
REMARK  125  A    between atoms: _296  and  _297
REMARK  126  A    between atoms: _297  and  _298
REMARK  127  A    between atoms: _303  and  _305
REMARK  128  A    between atoms: _305  and  _306
REMARK  129  A    between atoms: _305  and  _308
REMARK  130  A    between atoms: _308  and  _309
REMARK  131  A    between atoms: _311  and  _313
REMARK  132  A    between atoms: _313  and  _314
REMARK  133  A    between atoms: _313  and  _316
REMARK  134  A    between atoms: _316  and  _317
REMARK  135  A    between atoms: _320  and  _322
REMARK  136  A    between atoms: _322  and  _323
REMARK  137  A    between atoms: _322  and  _325
REMARK  138  A    between atoms: _325  and  _326
REMARK  139  A    between atoms: _326  and  _327
REMARK  140  A    between atoms: _327  and  _328
REMARK  141  A    between atoms: _337  and  _339
REMARK  142  A    between atoms: _339  and  _340
REMARK  143  A    between atoms: _339  and  _342
REMARK  144  A    between atoms: _342  and  _343
REMARK  145  A    between atoms: _343  and  _344
REMARK  146  A    between atoms: _346  and  _348
REMARK  147  A    between atoms: _348  and  _349
REMARK  148  A    between atoms: _348  and  _351
REMARK  149  A    between atoms: _351  and  _352
REMARK  150  A    between atoms: _355  and  _357
REMARK  151  A    between atoms: _357  and  _358
REMARK  152  A    between atoms: _357  and  _360
REMARK  153  A    between atoms: _360  and  _361
REMARK  154  A    between atoms: _364  and  _366
REMARK  155  A    between atoms: _366  and  _367
REMARK  156  A    between atoms: _366  and  _369
REMARK  157  A    between atoms: _369  and  _370
REMARK  158  A    between atoms: _370  and  _371
REMARK  159  A    between atoms: _373  and  _375
REMARK  160  A    between atoms: _375  and  _376
REMARK  161  A    between atoms: _375  and  _378
REMARK  162  A    between atoms: _378  and  _379
REMARK  163  A    between atoms: _382  and  _384
REMARK  164  A    between atoms: _384  and  _385
REMARK  165  A    between atoms: _384  and  _387
REMARK  166  A    between atoms: _387  and  _388
REMARK  167  A    between atoms: _388  and  _389
REMARK  168  A    between atoms: _392  and  _394
REMARK  169  A    between atoms: _394  and  _395
REMARK  170  A    between atoms: _394  and  _397
REMARK  171  A    between atoms: _397  and  _398
REMARK  172  A    between atoms: _404  and  _406
REMARK  173  A    between atoms: _406  and  _407
REMARK  174  A    between atoms: _411  and  _412
REMARK  175  A    between atoms: _417  and  _419
REMARK  176  A    between atoms: _419  and  _420
REMARK  177  A    between atoms: _419  and  _422
REMARK  178  A    between atoms: _422  and  _423
REMARK  179  A    between atoms: _423  and  _424
REMARK  180  A    between atoms: _424  and  _425
REMARK  181  A    between atoms: _434  and  _436
REMARK  182  A    between atoms: _436  and  _437
REMARK  183  A    between atoms: _439  and  _441
REMARK  184  A    between atoms: _441  and  _442
REMARK  185  A    between atoms: _441  and  _444
REMARK  186  A    between atoms: _444  and  _445
REMARK  187  A    between atoms: _445  and  _446
REMARK  188  A    between atoms: _449  and  _451
REMARK  189  A    between atoms: _451  and  _452
REMARK  190  A    between atoms: _451  and  _454
REMARK  191  A    between atoms: _454  and  _455
REMARK  192  A    between atoms: _458  and  _460
REMARK  193  A    between atoms: _460  and  _461
REMARK  194  A    between atoms: _460  and  _463
REMARK  195  A    between atoms: _463  and  _464
REMARK  196  A    between atoms: _464  and  _465
REMARK  197  A    between atoms: _465  and  _466
REMARK  198  A    between atoms: _466  and  _467
REMARK  199  A    between atoms: _471  and  _473
REMARK  200  A    between atoms: _473  and  _474
REMARK  201  A    between atoms: _473  and  _476
REMARK  202  A    between atoms: _476  and  _477
REMARK  203  A    between atoms: _477  and  _478
REMARK  204  A    between atoms: _481  and  _483
REMARK  205  A    between atoms: _483  and  _484
REMARK  206  A    between atoms: _483  and  _486
REMARK  207  A    between atoms: _486  and  _487
REMARK  208  A    between atoms: _487  and  _488
REMARK  209  A    between atoms: _488  and  _489
REMARK  210  A    between atoms: _489  and  _490
REMARK  211  A    between atoms: _494  and  _496
REMARK  212  A    between atoms: _496  and  _497
REMARK  213  A    between atoms: _496  and  _499
REMARK  214  A    between atoms: _499  and  _500
REMARK  215  A    between atoms: _500  and  _501
REMARK  216  A    between atoms: _504  and  _506
REMARK  217  A    between atoms: _506  and  _507
REMARK  218  A    between atoms: _506  and  _509
REMARK  219  A    between atoms: _509  and  _510
REMARK  220  A    between atoms: _515  and  _517
REMARK  221  A    between atoms: _517  and  _518
REMARK  222  A    between atoms: _517  and  _520
REMARK  223  A    between atoms: _520  and  _521
REMARK  224  A    between atoms: _524  and  _526
REMARK  225  A    between atoms: _526  and  _527
REMARK  226  A    between atoms: _526  and  _529
REMARK  227  A    between atoms: _529  and  _530
REMARK  228  A    between atoms: _533  and  _535
REMARK  229  A    between atoms: _535  and  _536
REMARK  230  A    between atoms: _535  and  _538
REMARK  231  A    between atoms: _538  and  _539
REMARK  232  A    between atoms: _539  and  _540
REMARK  233  A    between atoms: _542  and  _544
REMARK  234  A    between atoms: _544  and  _545
REMARK  235  A    between atoms: _544  and  _547
REMARK  236  A    between atoms: _547  and  _548
REMARK  237  A    between atoms: _548  and  _549
REMARK  238  A    between atoms: _549  and  _550
REMARK  239  A    between atoms: _550  and  _551
REMARK  240  A    between atoms: _555  and  _557
REMARK  241  A    between atoms: _557  and  _558
REMARK  242  A    between atoms: _557  and  _560
REMARK  243  A    between atoms: _560  and  _561
REMARK  244  A    between atoms: _564  and  _566
REMARK  245  A    between atoms: _566  and  _567
REMARK  246  A    between atoms: _570  and  _572
REMARK  247  A    between atoms: _572  and  _573
REMARK  248  A    between atoms: _572  and  _575
REMARK  249  A    between atoms: _575  and  _576
REMARK  250  A    between atoms: _579  and  _581
REMARK  251  A    between atoms: _581  and  _582
REMARK  252  A    between atoms: _581  and  _584
REMARK  253  A    between atoms: _584  and  _585
REMARK  254  A    between atoms: _591  and  _593
REMARK  255  A    between atoms: _593  and  _594
REMARK  256  A    between atoms: _596  and  _598
REMARK  257  A    between atoms: _598  and  _599
REMARK  258  A    between atoms: _598  and  _601
REMARK  259  A    between atoms: _601  and  _602
REMARK                            x       y       z     vdW  Elec       q    Type
REMARK                         _______ _______ _______ _____ _____    ______ ____
ROOT
ATOM      1  O   HOH     1      19.147 -28.853   3.752  0.00  0.00    +0.000 OA
ENDROOT
TORSDOF 0
REMARK  Name = ../refined-set-2016/4c2v/4c2v_pocket.pdb
REMARK  259 active torsions:
REMARK  status: ('A' for Active; 'I' for Inactive)
REMARK    1  A    between atoms: _1  and  _3
REMARK    2  A    between atoms: _3  and  _4
REMARK    3  A    between atoms: _3  and  _6
REMARK    4  A    between atoms: _6  and  _7
REMARK    5  A    between atoms: _7  and  _8
REMARK    6  A    between atoms: _8  and  _9
REMARK    7  A    between atoms: _19  and  _20
REMARK    8  A    between atoms: _25  and  _27
REMARK    9  A    between atoms: _27  and  _28
REMARK   10  A    between atoms: _27  and  _30
REMARK   11  A    between atoms: _30  and  _31
REMARK   12  A    between atoms: _34  and  _36
REMARK   13  A    between atoms: _36  and  _37
REMARK   14  A    between atoms: _39  and  _41
REMARK   15  A    between atoms: _41  and  _42
REMARK   16  A    between atoms: _41  and  _44
REMARK   17  A    between atoms: _44  and  _45
REMARK   18  A    between atoms: _45  and  _46
REMARK   19  A    between atoms: _46  and  _47
REMARK   20  A    between atoms: _47  and  _48
REMARK   21  A    between atoms: _52  and  _54
REMARK   22  A    between atoms: _54  and  _55
REMARK   23  A    between atoms: _57  and  _59
REMARK   24  A    between atoms: _59  and  _60
REMARK   25  A    between atoms: _59  and  _62
REMARK   26  A    between atoms: _62  and  _63
REMARK   27  A    between atoms: _63  and  _64
REMARK   28  A    between atoms: _64  and  _65
REMARK   29  A    between atoms: _65  and  _66
REMARK   30  A    between atoms: _70  and  _72
REMARK   31  A    between atoms: _72  and  _73
REMARK   32  A    between atoms: _72  and  _75
REMARK   33  A    between atoms: _75  and  _76
REMARK   34  A    between atoms: _82  and  _84
REMARK   35  A    between atoms: _84  and  _85
REMARK   36  A    between atoms: _87  and  _89
REMARK   37  A    between atoms: _89  and  _90
REMARK   38  A    between atoms: _89  and  _92
REMARK   39  A    between atoms: _92  and  _93
REMARK   40  A    between atoms: _98  and  _100
REMARK   41  A    between atoms: _100  and  _101
REMARK   42  A    between atoms: _100  and  _103
REMARK   43  A    between atoms: _106  and  _108
REMARK   44  A    between atoms: _108  and  _109
REMARK   45  A    between atoms: _108  and  _111
REMARK   46  A    between atoms: _111  and  _112
REMARK   47  A    between atoms: _117  and  _118
REMARK   48  A    between atoms: _120  and  _122
REMARK   49  A    between atoms: _122  and  _123
REMARK   50  A    between atoms: _122  and  _125
REMARK   51  A    between atoms: _125  and  _126
REMARK   52  A    between atoms: _129  and  _131
REMARK   53  A    between atoms: _131  and  _132
REMARK   54  A    between atoms: _135  and  _137
REMARK   55  A    between atoms: _137  and  _138
REMARK   56  A    between atoms: _137  and  _140
REMARK   57  A    between atoms: _140  and  _141
REMARK   58  A    between atoms: _141  and  _142
REMARK   59  A    between atoms: _144  and  _146
REMARK   60  A    between atoms: _146  and  _147
REMARK   61  A    between atoms: _150  and  _152
REMARK   62  A    between atoms: _152  and  _153
REMARK   63  A    between atoms: _152  and  _155
REMARK   64  A    between atoms: _155  and  _156
REMARK   65  A    between atoms: _159  and  _161
REMARK   66  A    between atoms: _161  and  _162
REMARK   67  A    between atoms: _161  and  _164
REMARK   68  A    between atoms: _164  and  _165
REMARK   69  A    between atoms: _165  and  _166
REMARK   70  A    between atoms: _166  and  _167
REMARK   71  A    between atoms: _167  and  _168
REMARK   72  A    between atoms: _172  and  _174
REMARK   73  A    between atoms: _174  and  _175
REMARK   74  A    between atoms: _174  and  _177
REMARK   75  A    between atoms: _180  and  _182
REMARK   76  A    between atoms: _182  and  _183
REMARK   77  A    between atoms: _182  and  _185
REMARK   78  A    between atoms: _185  and  _186
REMARK   79  A    between atoms: _189  and  _191
REMARK   80  A    between atoms: _191  and  _192
REMARK   81  A    between atoms: _191  and  _194
REMARK   82  A    between atoms: _194  and  _195
REMARK   83  A    between atoms: _198  and  _200
REMARK   84  A    between atoms: _200  and  _201
REMARK   85  A    between atoms: _200  and  _203
REMARK   86  A    between atoms: _203  and  _204
REMARK   87  A    between atoms: _204  and  _205
REMARK   88  A    between atoms: _210  and  _212
REMARK   89  A    between atoms: _212  and  _213
REMARK   90  A    between atoms: _212  and  _215
REMARK   91  A    between atoms: _215  and  _216
REMARK   92  A    between atoms: _219  and  _221
REMARK   93  A    between atoms: _221  and  _222
REMARK   94  A    between atoms: _221  and  _224
REMARK   95  A    between atoms: _224  and  _225
REMARK   96  A    between atoms: _225  and  _226
REMARK   97  A    between atoms: _226  and  _227
REMARK   98  A    between atoms: _236  and  _238
REMARK   99  A    between atoms: _238  and  _239
REMARK  100  A    between atoms: _238  and  _241
REMARK  101  A    between atoms: _241  and  _242
REMARK  102  A    between atoms: _242  and  _243
REMARK  103  A    between atoms: _243  and  _244
REMARK  104  A    between atoms: _253  and  _255
REMARK  105  A    between atoms: _255  and  _256
REMARK  106  A    between atoms: _255  and  _258
REMARK  107  A    between atoms: _258  and  _259
REMARK  108  A    between atoms: _259  and  _260
REMARK  109  A    between atoms: _263  and  _265
REMARK  110  A    between atoms: _265  and  _266
REMARK  111  A    between atoms: _265  and  _268
REMARK  112  A    between atoms: _268  and  _269
REMARK  113  A    between atoms: _272  and  _274
REMARK  114  A    between atoms: _274  and  _275
REMARK  115  A    between atoms: _274  and  _277
REMARK  116  A    between atoms: _277  and  _278
REMARK  117  A    between atoms: _278  and  _279
REMARK  118  A    between atoms: _282  and  _284
REMARK  119  A    between atoms: _284  and  _285
REMARK  120  A    between atoms: _284  and  _287
REMARK  121  A    between atoms: _287  and  _288
REMARK  122  A    between atoms: _291  and  _293
REMARK  123  A    between atoms: _293  and  _294
REMARK  124  A    between atoms: _293  and  _296
REMARK  125  A    between atoms: _296  and  _297
REMARK  126  A    between atoms: _297  and  _298
REMARK  127  A    between atoms: _303  and  _305
REMARK  128  A    between atoms: _305  and  _306
REMARK  129  A    between atoms: _305  and  _308
REMARK  130  A    between atoms: _308  and  _309
REMARK  131  A    between atoms: _311  and  _313
REMARK  132  A    between atoms: _313  and  _314
REMARK  133  A    between atoms: _313  and  _316
REMARK  134  A    between atoms: _316  and  _317
REMARK  135  A    between atoms: _320  and  _322
REMARK  136  A    between atoms: _322  and  _323
REMARK  137  A    between atoms: _322  and  _325
REMARK  138  A    between atoms: _325  and  _326
REMARK  139  A    between atoms: _326  and  _327
REMARK  140  A    between atoms: _327  and  _328
REMARK  141  A    between atoms: _337  and  _339
REMARK  142  A    between atoms: _339  and  _340
REMARK  143  A    between atoms: _339  and  _342
REMARK  144  A    between atoms: _342  and  _343
REMARK  145  A    between atoms: _343  and  _344
REMARK  146  A    between atoms: _346  and  _348
REMARK  147  A    between atoms: _348  and  _349
REMARK  148  A    between atoms: _348  and  _351
REMARK  149  A    between atoms: _351  and  _352
REMARK  150  A    between atoms: _355  and  _357
REMARK  151  A    between atoms: _357  and  _358
REMARK  152  A    between atoms: _357  and  _360
REMARK  153  A    between atoms: _360  and  _361
REMARK  154  A    between atoms: _364  and  _366
REMARK  155  A    between atoms: _366  and  _367
REMARK  156  A    between atoms: _366  and  _369
REMARK  157  A    between atoms: _369  and  _370
REMARK  158  A    between atoms: _370  and  _371
REMARK  159  A    between atoms: _373  and  _375
REMARK  160  A    between atoms: _375  and  _376
REMARK  161  A    between atoms: _375  and  _378
REMARK  162  A    between atoms: _378  and  _379
REMARK  163  A    between atoms: _382  and  _384
REMARK  164  A    between atoms: _384  and  _385
REMARK  165  A    between atoms: _384  and  _387
REMARK  166  A    between atoms: _387  and  _388
REMARK  167  A    between atoms: _388  and  _389
REMARK  168  A    between atoms: _392  and  _394
REMARK  169  A    between atoms: _394  and  _395
REMARK  170  A    between atoms: _394  and  _397
REMARK  171  A    between atoms: _397  and  _398
REMARK  172  A    between atoms: _404  and  _406
REMARK  173  A    between atoms: _406  and  _407
REMARK  174  A    between atoms: _411  and  _412
REMARK  175  A    between atoms: _417  and  _419
REMARK  176  A    between atoms: _419  and  _420
REMARK  177  A    between atoms: _419  and  _422
REMARK  178  A    between atoms: _422  and  _423
REMARK  179  A    between atoms: _423  and  _424
REMARK  180  A    between atoms: _424  and  _425
REMARK  181  A    between atoms: _434  and  _436
REMARK  182  A    between atoms: _436  and  _437
REMARK  183  A    between atoms: _439  and  _441
REMARK  184  A    between atoms: _441  and  _442
REMARK  185  A    between atoms: _441  and  _444
REMARK  186  A    between atoms: _444  and  _445
REMARK  187  A    between atoms: _445  and  _446
REMARK  188  A    between atoms: _449  and  _451
REMARK  189  A    between atoms: _451  and  _452
REMARK  190  A    between atoms: _451  and  _454
REMARK  191  A    between atoms: _454  and  _455
REMARK  192  A    between atoms: _458  and  _460
REMARK  193  A    between atoms: _460  and  _461
REMARK  194  A    between atoms: _460  and  _463
REMARK  195  A    between atoms: _463  and  _464
REMARK  196  A    between atoms: _464  and  _465
REMARK  197  A    between atoms: _465  and  _466
REMARK  198  A    between atoms: _466  and  _467
REMARK  199  A    between atoms: _471  and  _473
REMARK  200  A    between atoms: _473  and  _474
REMARK  201  A    between atoms: _473  and  _476
REMARK  202  A    between atoms: _476  and  _477
REMARK  203  A    between atoms: _477  and  _478
REMARK  204  A    between atoms: _481  and  _483
REMARK  205  A    between atoms: _483  and  _484
REMARK  206  A    between atoms: _483  and  _486
REMARK  207  A    between atoms: _486  and  _487
REMARK  208  A    between atoms: _487  and  _488
REMARK  209  A    between atoms: _488  and  _489
REMARK  210  A    between atoms: _489  and  _490
REMARK  211  A    between atoms: _494  and  _496
REMARK  212  A    between atoms: _496  and  _497
REMARK  213  A    between atoms: _496  and  _499
REMARK  214  A    between atoms: _499  and  _500
REMARK  215  A    between atoms: _500  and  _501
REMARK  216  A    between atoms: _504  and  _506
REMARK  217  A    between atoms: _506  and  _507
REMARK  218  A    between atoms: _506  and  _509
REMARK  219  A    between atoms: _509  and  _510
REMARK  220  A    between atoms: _515  and  _517
REMARK  221  A    between atoms: _517  and  _518
REMARK  222  A    between atoms: _517  and  _520
REMARK  223  A    between atoms: _520  and  _521
REMARK  224  A    between atoms: _524  and  _526
REMARK  225  A    between atoms: _526  and  _527
REMARK  226  A    between atoms: _526  and  _529
REMARK  227  A    between atoms: _529  and  _530
REMARK  228  A    between atoms: _533  and  _535
REMARK  229  A    between atoms: _535  and  _536
REMARK  230  A    between atoms: _535  and  _538
REMARK  231  A    between atoms: _538  and  _539
REMARK  232  A    between atoms: _539  and  _540
REMARK  233  A    between atoms: _542  and  _544
REMARK  234  A    between atoms: _544  and  _545
REMARK  235  A    between atoms: _544  and  _547
REMARK  236  A    between atoms: _547  and  _548
REMARK  237  A    between atoms: _548  and  _549
REMARK  238  A    between atoms: _549  and  _550
REMARK  239  A    between atoms: _550  and  _551
REMARK  240  A    between atoms: _555  and  _557
REMARK  241  A    between atoms: _557  and  _558
REMARK  242  A    between atoms: _557  and  _560
REMARK  243  A    between atoms: _560  and  _561
REMARK  244  A    between atoms: _564  and  _566
REMARK  245  A    between atoms: _566  and  _567
REMARK  246  A    between atoms: _570  and  _572
REMARK  247  A    between atoms: _572  and  _573
REMARK  248  A    between atoms: _572  and  _575
REMARK  249  A    between atoms: _575  and  _576
REMARK  250  A    between atoms: _579  and  _581
REMARK  251  A    between atoms: _581  and  _582
REMARK  252  A    between atoms: _581  and  _584
REMARK  253  A    between atoms: _584  and  _585
REMARK  254  A    between atoms: _591  and  _593
REMARK  255  A    between atoms: _593  and  _594
REMARK  256  A    between atoms: _596  and  _598
REMARK  257  A    between atoms: _598  and  _599
REMARK  258  A    between atoms: _598  and  _601
REMARK  259  A    between atoms: _601  and  _602
REMARK                            x       y       z     vdW  Elec       q    Type
REMARK                         _______ _______ _______ _____ _____    ______ ____
ROOT
ATOM      1  O   HOH     1      12.815 -34.829   6.593  0.00  0.00    +0.000 OA
ENDROOT
TORSDOF 0
REMARK  Name = ../refined-set-2016/4c2v/4c2v_pocket.pdb
REMARK  259 active torsions:
REMARK  status: ('A' for Active; 'I' for Inactive)
REMARK    1  A    between atoms: _1  and  _3
REMARK    2  A    between atoms: _3  and  _4
REMARK    3  A    between atoms: _3  and  _6
REMARK    4  A    between atoms: _6  and  _7
REMARK    5  A    between atoms: _7  and  _8
REMARK    6  A    between atoms: _8  and  _9
REMARK    7  A    between atoms: _19  and  _20
REMARK    8  A    between atoms: _25  and  _27
REMARK    9  A    between atoms: _27  and  _28
REMARK   10  A    between atoms: _27  and  _30
REMARK   11  A    between atoms: _30  and  _31
REMARK   12  A    between atoms: _34  and  _36
REMARK   13  A    between atoms: _36  and  _37
REMARK   14  A    between atoms: _39  and  _41
REMARK   15  A    between atoms: _41  and  _42
REMARK   16  A    between atoms: _41  and  _44
REMARK   17  A    between atoms: _44  and  _45
REMARK   18  A    between atoms: _45  and  _46
REMARK   19  A    between atoms: _46  and  _47
REMARK   20  A    between atoms: _47  and  _48
REMARK   21  A    between atoms: _52  and  _54
REMARK   22  A    between atoms: _54  and  _55
REMARK   23  A    between atoms: _57  and  _59
REMARK   24  A    between atoms: _59  and  _60
REMARK   25  A    between atoms: _59  and  _62
REMARK   26  A    between atoms: _62  and  _63
REMARK   27  A    between atoms: _63  and  _64
REMARK   28  A    between atoms: _64  and  _65
REMARK   29  A    between atoms: _65  and  _66
REMARK   30  A    between atoms: _70  and  _72
REMARK   31  A    between atoms: _72  and  _73
REMARK   32  A    between atoms: _72  and  _75
REMARK   33  A    between atoms: _75  and  _76
REMARK   34  A    between atoms: _82  and  _84
REMARK   35  A    between atoms: _84  and  _85
REMARK   36  A    between atoms: _87  and  _89
REMARK   37  A    between atoms: _89  and  _90
REMARK   38  A    between atoms: _89  and  _92
REMARK   39  A    between atoms: _92  and  _93
REMARK   40  A    between atoms: _98  and  _100
REMARK   41  A    between atoms: _100  and  _101
REMARK   42  A    between atoms: _100  and  _103
REMARK   43  A    between atoms: _106  and  _108
REMARK   44  A    between atoms: _108  and  _109
REMARK   45  A    between atoms: _108  and  _111
REMARK   46  A    between atoms: _111  and  _112
REMARK   47  A    between atoms: _117  and  _118
REMARK   48  A    between atoms: _120  and  _122
REMARK   49  A    between atoms: _122  and  _123
REMARK   50  A    between atoms: _122  and  _125
REMARK   51  A    between atoms: _125  and  _126
REMARK   52  A    between atoms: _129  and  _131
REMARK   53  A    between atoms: _131  and  _132
REMARK   54  A    between atoms: _135  and  _137
REMARK   55  A    between atoms: _137  and  _138
REMARK   56  A    between atoms: _137  and  _140
REMARK   57  A    between atoms: _140  and  _141
REMARK   58  A    between atoms: _141  and  _142
REMARK   59  A    between atoms: _144  and  _146
REMARK   60  A    between atoms: _146  and  _147
REMARK   61  A    between atoms: _150  and  _152
REMARK   62  A    between atoms: _152  and  _153
REMARK   63  A    between atoms: _152  and  _155
REMARK   64  A    between atoms: _155  and  _156
REMARK   65  A    between atoms: _159  and  _161
REMARK   66  A    between atoms: _161  and  _162
REMARK   67  A    between atoms: _161  and  _164
REMARK   68  A    between atoms: _164  and  _165
REMARK   69  A    between atoms: _165  and  _166
REMARK   70  A    between atoms: _166  and  _167
REMARK   71  A    between atoms: _167  and  _168
REMARK   72  A    between atoms: _172  and  _174
REMARK   73  A    between atoms: _174  and  _175
REMARK   74  A    between atoms: _174  and  _177
REMARK   75  A    between atoms: _180  and  _182
REMARK   76  A    between atoms: _182  and  _183
REMARK   77  A    between atoms: _182  and  _185
REMARK   78  A    between atoms: _185  and  _186
REMARK   79  A    between atoms: _189  and  _191
REMARK   80  A    between atoms: _191  and  _192
REMARK   81  A    between atoms: _191  and  _194
REMARK   82  A    between atoms: _194  and  _195
REMARK   83  A    between atoms: _198  and  _200
REMARK   84  A    between atoms: _200  and  _201
REMARK   85  A    between atoms: _200  and  _203
REMARK   86  A    between atoms: _203  and  _204
REMARK   87  A    between atoms: _204  and  _205
REMARK   88  A    between atoms: _210  and  _212
REMARK   89  A    between atoms: _212  and  _213
REMARK   90  A    between atoms: _212  and  _215
REMARK   91  A    between atoms: _215  and  _216
REMARK   92  A    between atoms: _219  and  _221
REMARK   93  A    between atoms: _221  and  _222
REMARK   94  A    between atoms: _221  and  _224
REMARK   95  A    between atoms: _224  and  _225
REMARK   96  A    between atoms: _225  and  _226
REMARK   97  A    between atoms: _226  and  _227
REMARK   98  A    between atoms: _236  and  _238
REMARK   99  A    between atoms: _238  and  _239
REMARK  100  A    between atoms: _238  and  _241
REMARK  101  A    between atoms: _241  and  _242
REMARK  102  A    between atoms: _242  and  _243
REMARK  103  A    between atoms: _243  and  _244
REMARK  104  A    between atoms: _253  and  _255
REMARK  105  A    between atoms: _255  and  _256
REMARK  106  A    between atoms: _255  and  _258
REMARK  107  A    between atoms: _258  and  _259
REMARK  108  A    between atoms: _259  and  _260
REMARK  109  A    between atoms: _263  and  _265
REMARK  110  A    between atoms: _265  and  _266
REMARK  111  A    between atoms: _265  and  _268
REMARK  112  A    between atoms: _268  and  _269
REMARK  113  A    between atoms: _272  and  _274
REMARK  114  A    between atoms: _274  and  _275
REMARK  115  A    between atoms: _274  and  _277
REMARK  116  A    between atoms: _277  and  _278
REMARK  117  A    between atoms: _278  and  _279
REMARK  118  A    between atoms: _282  and  _284
REMARK  119  A    between atoms: _284  and  _285
REMARK  120  A    between atoms: _284  and  _287
REMARK  121  A    between atoms: _287  and  _288
REMARK  122  A    between atoms: _291  and  _293
REMARK  123  A    between atoms: _293  and  _294
REMARK  124  A    between atoms: _293  and  _296
REMARK  125  A    between atoms: _296  and  _297
REMARK  126  A    between atoms: _297  and  _298
REMARK  127  A    between atoms: _303  and  _305
REMARK  128  A    between atoms: _305  and  _306
REMARK  129  A    between atoms: _305  and  _308
REMARK  130  A    between atoms: _308  and  _309
REMARK  131  A    between atoms: _311  and  _313
REMARK  132  A    between atoms: _313  and  _314
REMARK  133  A    between atoms: _313  and  _316
REMARK  134  A    between atoms: _316  and  _317
REMARK  135  A    between atoms: _320  and  _322
REMARK  136  A    between atoms: _322  and  _323
REMARK  137  A    between atoms: _322  and  _325
REMARK  138  A    between atoms: _325  and  _326
REMARK  139  A    between atoms: _326  and  _327
REMARK  140  A    between atoms: _327  and  _328
REMARK  141  A    between atoms: _337  and  _339
REMARK  142  A    between atoms: _339  and  _340
REMARK  143  A    between atoms: _339  and  _342
REMARK  144  A    between atoms: _342  and  _343
REMARK  145  A    between atoms: _343  and  _344
REMARK  146  A    between atoms: _346  and  _348
REMARK  147  A    between atoms: _348  and  _349
REMARK  148  A    between atoms: _348  and  _351
REMARK  149  A    between atoms: _351  and  _352
REMARK  150  A    between atoms: _355  and  _357
REMARK  151  A    between atoms: _357  and  _358
REMARK  152  A    between atoms: _357  and  _360
REMARK  153  A    between atoms: _360  and  _361
REMARK  154  A    between atoms: _364  and  _366
REMARK  155  A    between atoms: _366  and  _367
REMARK  156  A    between atoms: _366  and  _369
REMARK  157  A    between atoms: _369  and  _370
REMARK  158  A    between atoms: _370  and  _371
REMARK  159  A    between atoms: _373  and  _375
REMARK  160  A    between atoms: _375  and  _376
REMARK  161  A    between atoms: _375  and  _378
REMARK  162  A    between atoms: _378  and  _379
REMARK  163  A    between atoms: _382  and  _384
REMARK  164  A    between atoms: _384  and  _385
REMARK  165  A    between atoms: _384  and  _387
REMARK  166  A    between atoms: _387  and  _388
REMARK  167  A    between atoms: _388  and  _389
REMARK  168  A    between atoms: _392  and  _394
REMARK  169  A    between atoms: _394  and  _395
REMARK  170  A    between atoms: _394  and  _397
REMARK  171  A    between atoms: _397  and  _398
REMARK  172  A    between atoms: _404  and  _406
REMARK  173  A    between atoms: _406  and  _407
REMARK  174  A    between atoms: _411  and  _412
REMARK  175  A    between atoms: _417  and  _419
REMARK  176  A    between atoms: _419  and  _420
REMARK  177  A    between atoms: _419  and  _422
REMARK  178  A    between atoms: _422  and  _423
REMARK  179  A    between atoms: _423  and  _424
REMARK  180  A    between atoms: _424  and  _425
REMARK  181  A    between atoms: _434  and  _436
REMARK  182  A    between atoms: _436  and  _437
REMARK  183  A    between atoms: _439  and  _441
REMARK  184  A    between atoms: _441  and  _442
REMARK  185  A    between atoms: _441  and  _444
REMARK  186  A    between atoms: _444  and  _445
REMARK  187  A    between atoms: _445  and  _446
REMARK  188  A    between atoms: _449  and  _451
REMARK  189  A    between atoms: _451  and  _452
REMARK  190  A    between atoms: _451  and  _454
REMARK  191  A    between atoms: _454  and  _455
REMARK  192  A    between atoms: _458  and  _460
REMARK  193  A    between atoms: _460  and  _461
REMARK  194  A    between atoms: _460  and  _463
REMARK  195  A    between atoms: _463  and  _464
REMARK  196  A    between atoms: _464  and  _465
REMARK  197  A    between atoms: _465  and  _466
REMARK  198  A    between atoms: _466  and  _467
REMARK  199  A    between atoms: _471  and  _473
REMARK  200  A    between atoms: _473  and  _474
REMARK  201  A    between atoms: _473  and  _476
REMARK  202  A    between atoms: _476  and  _477
REMARK  203  A    between atoms: _477  and  _478
REMARK  204  A    between atoms: _481  and  _483
REMARK  205  A    between atoms: _483  and  _484
REMARK  206  A    between atoms: _483  and  _486
REMARK  207  A    between atoms: _486  and  _487
REMARK  208  A    between atoms: _487  and  _488
REMARK  209  A    between atoms: _488  and  _489
REMARK  210  A    between atoms: _489  and  _490
REMARK  211  A    between atoms: _494  and  _496
REMARK  212  A    between atoms: _496  and  _497
REMARK  213  A    between atoms: _496  and  _499
REMARK  214  A    between atoms: _499  and  _500
REMARK  215  A    between atoms: _500  and  _501
REMARK  216  A    between atoms: _504  and  _506
REMARK  217  A    between atoms: _506  and  _507
REMARK  218  A    between atoms: _506  and  _509
REMARK  219  A    between atoms: _509  and  _510
REMARK  220  A    between atoms: _515  and  _517
REMARK  221  A    between atoms: _517  and  _518
REMARK  222  A    between atoms: _517  and  _520
REMARK  223  A    between atoms: _520  and  _521
REMARK  224  A    between atoms: _524  and  _526
REMARK  225  A    between atoms: _526  and  _527
REMARK  226  A    between atoms: _526  and  _529
REMARK  227  A    between atoms: _529  and  _530
REMARK  228  A    between atoms: _533  and  _535
REMARK  229  A    between atoms: _535  and  _536
REMARK  230  A    between atoms: _535  and  _538
REMARK  231  A    between atoms: _538  and  _539
REMARK  232  A    between atoms: _539  and  _540
REMARK  233  A    between atoms: _542  and  _544
REMARK  234  A    between atoms: _544  and  _545
REMARK  235  A    between atoms: _544  and  _547
REMARK  236  A    between atoms: _547  and  _548
REMARK  237  A    between atoms: _548  and  _549
REMARK  238  A    between atoms: _549  and  _550
REMARK  239  A    between atoms: _550  and  _551
REMARK  240  A    between atoms: _555  and  _557
REMARK  241  A    between atoms: _557  and  _558
REMARK  242  A    between atoms: _557  and  _560
REMARK  243  A    between atoms: _560  and  _561
REMARK  244  A    between atoms: _564  and  _566
REMARK  245  A    between atoms: _566  and  _567
REMARK  246  A    between atoms: _570  and  _572
REMARK  247  A    between atoms: _572  and  _573
REMARK  248  A    between atoms: _572  and  _575
REMARK  249  A    between atoms: _575  and  _576
REMARK  250  A    between atoms: _579  and  _581
REMARK  251  A    between atoms: _581  and  _582
REMARK  252  A    between atoms: _581  and  _584
REMARK  253  A    between atoms: _584  and  _585
REMARK  254  A    between atoms: _591  and  _593
REMARK  255  A    between atoms: _593  and  _594
REMARK  256  A    between atoms: _596  and  _598
REMARK  257  A    between atoms: _598  and  _599
REMARK  258  A    between atoms: _598  and  _601
REMARK  259  A    between atoms: _601  and  _602
REMARK                            x       y       z     vdW  Elec       q    Type
REMARK                         _______ _______ _______ _____ _____    ______ ____
ROOT
ATOM      1  O   HOH     1      16.345 -34.948   7.418  0.00  0.00    +0.000 OA
ENDROOT
TORSDOF 0
REMARK  Name = ../refined-set-2016/4c2v/4c2v_pocket.pdb
REMARK  259 active torsions:
REMARK  status: ('A' for Active; 'I' for Inactive)
REMARK    1  A    between atoms: _1  and  _3
REMARK    2  A    between atoms: _3  and  _4
REMARK    3  A    between atoms: _3  and  _6
REMARK    4  A    between atoms: _6  and  _7
REMARK    5  A    between atoms: _7  and  _8
REMARK    6  A    between atoms: _8  and  _9
REMARK    7  A    between atoms: _19  and  _20
REMARK    8  A    between atoms: _25  and  _27
REMARK    9  A    between atoms: _27  and  _28
REMARK   10  A    between atoms: _27  and  _30
REMARK   11  A    between atoms: _30  and  _31
REMARK   12  A    between atoms: _34  and  _36
REMARK   13  A    between atoms: _36  and  _37
REMARK   14  A    between atoms: _39  and  _41
REMARK   15  A    between atoms: _41  and  _42
REMARK   16  A    between atoms: _41  and  _44
REMARK   17  A    between atoms: _44  and  _45
REMARK   18  A    between atoms: _45  and  _46
REMARK   19  A    between atoms: _46  and  _47
REMARK   20  A    between atoms: _47  and  _48
REMARK   21  A    between atoms: _52  and  _54
REMARK   22  A    between atoms: _54  and  _55
REMARK   23  A    between atoms: _57  and  _59
REMARK   24  A    between atoms: _59  and  _60
REMARK   25  A    between atoms: _59  and  _62
REMARK   26  A    between atoms: _62  and  _63
REMARK   27  A    between atoms: _63  and  _64
REMARK   28  A    between atoms: _64  and  _65
REMARK   29  A    between atoms: _65  and  _66
REMARK   30  A    between atoms: _70  and  _72
REMARK   31  A    between atoms: _72  and  _73
REMARK   32  A    between atoms: _72  and  _75
REMARK   33  A    between atoms: _75  and  _76
REMARK   34  A    between atoms: _82  and  _84
REMARK   35  A    between atoms: _84  and  _85
REMARK   36  A    between atoms: _87  and  _89
REMARK   37  A    between atoms: _89  and  _90
REMARK   38  A    between atoms: _89  and  _92
REMARK   39  A    between atoms: _92  and  _93
REMARK   40  A    between atoms: _98  and  _100
REMARK   41  A    between atoms: _100  and  _101
REMARK   42  A    between atoms: _100  and  _103
REMARK   43  A    between atoms: _106  and  _108
REMARK   44  A    between atoms: _108  and  _109
REMARK   45  A    between atoms: _108  and  _111
REMARK   46  A    between atoms: _111  and  _112
REMARK   47  A    between atoms: _117  and  _118
REMARK   48  A    between atoms: _120  and  _122
REMARK   49  A    between atoms: _122  and  _123
REMARK   50  A    between atoms: _122  and  _125
REMARK   51  A    between atoms: _125  and  _126
REMARK   52  A    between atoms: _129  and  _131
REMARK   53  A    between atoms: _131  and  _132
REMARK   54  A    between atoms: _135  and  _137
REMARK   55  A    between atoms: _137  and  _138
REMARK   56  A    between atoms: _137  and  _140
REMARK   57  A    between atoms: _140  and  _141
REMARK   58  A    between atoms: _141  and  _142
REMARK   59  A    between atoms: _144  and  _146
REMARK   60  A    between atoms: _146  and  _147
REMARK   61  A    between atoms: _150  and  _152
REMARK   62  A    between atoms: _152  and  _153
REMARK   63  A    between atoms: _152  and  _155
REMARK   64  A    between atoms: _155  and  _156
REMARK   65  A    between atoms: _159  and  _161
REMARK   66  A    between atoms: _161  and  _162
REMARK   67  A    between atoms: _161  and  _164
REMARK   68  A    between atoms: _164  and  _165
REMARK   69  A    between atoms: _165  and  _166
REMARK   70  A    between atoms: _166  and  _167
REMARK   71  A    between atoms: _167  and  _168
REMARK   72  A    between atoms: _172  and  _174
REMARK   73  A    between atoms: _174  and  _175
REMARK   74  A    between atoms: _174  and  _177
REMARK   75  A    between atoms: _180  and  _182
REMARK   76  A    between atoms: _182  and  _183
REMARK   77  A    between atoms: _182  and  _185
REMARK   78  A    between atoms: _185  and  _186
REMARK   79  A    between atoms: _189  and  _191
REMARK   80  A    between atoms: _191  and  _192
REMARK   81  A    between atoms: _191  and  _194
REMARK   82  A    between atoms: _194  and  _195
REMARK   83  A    between atoms: _198  and  _200
REMARK   84  A    between atoms: _200  and  _201
REMARK   85  A    between atoms: _200  and  _203
REMARK   86  A    between atoms: _203  and  _204
REMARK   87  A    between atoms: _204  and  _205
REMARK   88  A    between atoms: _210  and  _212
REMARK   89  A    between atoms: _212  and  _213
REMARK   90  A    between atoms: _212  and  _215
REMARK   91  A    between atoms: _215  and  _216
REMARK   92  A    between atoms: _219  and  _221
REMARK   93  A    between atoms: _221  and  _222
REMARK   94  A    between atoms: _221  and  _224
REMARK   95  A    between atoms: _224  and  _225
REMARK   96  A    between atoms: _225  and  _226
REMARK   97  A    between atoms: _226  and  _227
REMARK   98  A    between atoms: _236  and  _238
REMARK   99  A    between atoms: _238  and  _239
REMARK  100  A    between atoms: _238  and  _241
REMARK  101  A    between atoms: _241  and  _242
REMARK  102  A    between atoms: _242  and  _243
REMARK  103  A    between atoms: _243  and  _244
REMARK  104  A    between atoms: _253  and  _255
REMARK  105  A    between atoms: _255  and  _256
REMARK  106  A    between atoms: _255  and  _258
REMARK  107  A    between atoms: _258  and  _259
REMARK  108  A    between atoms: _259  and  _260
REMARK  109  A    between atoms: _263  and  _265
REMARK  110  A    between atoms: _265  and  _266
REMARK  111  A    between atoms: _265  and  _268
REMARK  112  A    between atoms: _268  and  _269
REMARK  113  A    between atoms: _272  and  _274
REMARK  114  A    between atoms: _274  and  _275
REMARK  115  A    between atoms: _274  and  _277
REMARK  116  A    between atoms: _277  and  _278
REMARK  117  A    between atoms: _278  and  _279
REMARK  118  A    between atoms: _282  and  _284
REMARK  119  A    between atoms: _284  and  _285
REMARK  120  A    between atoms: _284  and  _287
REMARK  121  A    between atoms: _287  and  _288
REMARK  122  A    between atoms: _291  and  _293
REMARK  123  A    between atoms: _293  and  _294
REMARK  124  A    between atoms: _293  and  _296
REMARK  125  A    between atoms: _296  and  _297
REMARK  126  A    between atoms: _297  and  _298
REMARK  127  A    between atoms: _303  and  _305
REMARK  128  A    between atoms: _305  and  _306
REMARK  129  A    between atoms: _305  and  _308
REMARK  130  A    between atoms: _308  and  _309
REMARK  131  A    between atoms: _311  and  _313
REMARK  132  A    between atoms: _313  and  _314
REMARK  133  A    between atoms: _313  and  _316
REMARK  134  A    between atoms: _316  and  _317
REMARK  135  A    between atoms: _320  and  _322
REMARK  136  A    between atoms: _322  and  _323
REMARK  137  A    between atoms: _322  and  _325
REMARK  138  A    between atoms: _325  and  _326
REMARK  139  A    between atoms: _326  and  _327
REMARK  140  A    between atoms: _327  and  _328
REMARK  141  A    between atoms: _337  and  _339
REMARK  142  A    between atoms: _339  and  _340
REMARK  143  A    between atoms: _339  and  _342
REMARK  144  A    between atoms: _342  and  _343
REMARK  145  A    between atoms: _343  and  _344
REMARK  146  A    between atoms: _346  and  _348
REMARK  147  A    between atoms: _348  and  _349
REMARK  148  A    between atoms: _348  and  _351
REMARK  149  A    between atoms: _351  and  _352
REMARK  150  A    between atoms: _355  and  _357
REMARK  151  A    between atoms: _357  and  _358
REMARK  152  A    between atoms: _357  and  _360
REMARK  153  A    between atoms: _360  and  _361
REMARK  154  A    between atoms: _364  and  _366
REMARK  155  A    between atoms: _366  and  _367
REMARK  156  A    between atoms: _366  and  _369
REMARK  157  A    between atoms: _369  and  _370
REMARK  158  A    between atoms: _370  and  _371
REMARK  159  A    between atoms: _373  and  _375
REMARK  160  A    between atoms: _375  and  _376
REMARK  161  A    between atoms: _375  and  _378
REMARK  162  A    between atoms: _378  and  _379
REMARK  163  A    between atoms: _382  and  _384
REMARK  164  A    between atoms: _384  and  _385
REMARK  165  A    between atoms: _384  and  _387
REMARK  166  A    between atoms: _387  and  _388
REMARK  167  A    between atoms: _388  and  _389
REMARK  168  A    between atoms: _392  and  _394
REMARK  169  A    between atoms: _394  and  _395
REMARK  170  A    between atoms: _394  and  _397
REMARK  171  A    between atoms: _397  and  _398
REMARK  172  A    between atoms: _404  and  _406
REMARK  173  A    between atoms: _406  and  _407
REMARK  174  A    between atoms: _411  and  _412
REMARK  175  A    between atoms: _417  and  _419
REMARK  176  A    between atoms: _419  and  _420
REMARK  177  A    between atoms: _419  and  _422
REMARK  178  A    between atoms: _422  and  _423
REMARK  179  A    between atoms: _423  and  _424
REMARK  180  A    between atoms: _424  and  _425
REMARK  181  A    between atoms: _434  and  _436
REMARK  182  A    between atoms: _436  and  _437
REMARK  183  A    between atoms: _439  and  _441
REMARK  184  A    between atoms: _441  and  _442
REMARK  185  A    between atoms: _441  and  _444
REMARK  186  A    between atoms: _444  and  _445
REMARK  187  A    between atoms: _445  and  _446
REMARK  188  A    between atoms: _449  and  _451
REMARK  189  A    between atoms: _451  and  _452
REMARK  190  A    between atoms: _451  and  _454
REMARK  191  A    between atoms: _454  and  _455
REMARK  192  A    between atoms: _458  and  _460
REMARK  193  A    between atoms: _460  and  _461
REMARK  194  A    between atoms: _460  and  _463
REMARK  195  A    between atoms: _463  and  _464
REMARK  196  A    between atoms: _464  and  _465
REMARK  197  A    between atoms: _465  and  _466
REMARK  198  A    between atoms: _466  and  _467
REMARK  199  A    between atoms: _471  and  _473
REMARK  200  A    between atoms: _473  and  _474
REMARK  201  A    between atoms: _473  and  _476
REMARK  202  A    between atoms: _476  and  _477
REMARK  203  A    between atoms: _477  and  _478
REMARK  204  A    between atoms: _481  and  _483
REMARK  205  A    between atoms: _483  and  _484
REMARK  206  A    between atoms: _483  and  _486
REMARK  207  A    between atoms: _486  and  _487
REMARK  208  A    between atoms: _487  and  _488
REMARK  209  A    between atoms: _488  and  _489
REMARK  210  A    between atoms: _489  and  _490
REMARK  211  A    between atoms: _494  and  _496
REMARK  212  A    between atoms: _496  and  _497
REMARK  213  A    between atoms: _496  and  _499
REMARK  214  A    between atoms: _499  and  _500
REMARK  215  A    between atoms: _500  and  _501
REMARK  216  A    between atoms: _504  and  _506
REMARK  217  A    between atoms: _506  and  _507
REMARK  218  A    between atoms: _506  and  _509
REMARK  219  A    between atoms: _509  and  _510
REMARK  220  A    between atoms: _515  and  _517
REMARK  221  A    between atoms: _517  and  _518
REMARK  222  A    between atoms: _517  and  _520
REMARK  223  A    between atoms: _520  and  _521
REMARK  224  A    between atoms: _524  and  _526
REMARK  225  A    between atoms: _526  and  _527
REMARK  226  A    between atoms: _526  and  _529
REMARK  227  A    between atoms: _529  and  _530
REMARK  228  A    between atoms: _533  and  _535
REMARK  229  A    between atoms: _535  and  _536
REMARK  230  A    between atoms: _535  and  _538
REMARK  231  A    between atoms: _538  and  _539
REMARK  232  A    between atoms: _539  and  _540
REMARK  233  A    between atoms: _542  and  _544
REMARK  234  A    between atoms: _544  and  _545
REMARK  235  A    between atoms: _544  and  _547
REMARK  236  A    between atoms: _547  and  _548
REMARK  237  A    between atoms: _548  and  _549
REMARK  238  A    between atoms: _549  and  _550
REMARK  239  A    between atoms: _550  and  _551
REMARK  240  A    between atoms: _555  and  _557
REMARK  241  A    between atoms: _557  and  _558
REMARK  242  A    between atoms: _557  and  _560
REMARK  243  A    between atoms: _560  and  _561
REMARK  244  A    between atoms: _564  and  _566
REMARK  245  A    between atoms: _566  and  _567
REMARK  246  A    between atoms: _570  and  _572
REMARK  247  A    between atoms: _572  and  _573
REMARK  248  A    between atoms: _572  and  _575
REMARK  249  A    between atoms: _575  and  _576
REMARK  250  A    between atoms: _579  and  _581
REMARK  251  A    between atoms: _581  and  _582
REMARK  252  A    between atoms: _581  and  _584
REMARK  253  A    between atoms: _584  and  _585
REMARK  254  A    between atoms: _591  and  _593
REMARK  255  A    between atoms: _593  and  _594
REMARK  256  A    between atoms: _596  and  _598
REMARK  257  A    between atoms: _598  and  _599
REMARK  258  A    between atoms: _598  and  _601
REMARK  259  A    between atoms: _601  and  _602
REMARK                            x       y       z     vdW  Elec       q    Type
REMARK                         _______ _______ _______ _____ _____    ______ ____
ROOT
ATOM      1  O   HOH     1      22.037 -31.396   9.189  0.00  0.00    +0.000 OA
ENDROOT
TORSDOF 0
REMARK  Name = ../refined-set-2016/4c2v/4c2v_pocket.pdb
REMARK  259 active torsions:
REMARK  status: ('A' for Active; 'I' for Inactive)
REMARK    1  A    between atoms: _1  and  _3
REMARK    2  A    between atoms: _3  and  _4
REMARK    3  A    between atoms: _3  and  _6
REMARK    4  A    between atoms: _6  and  _7
REMARK    5  A    between atoms: _7  and  _8
REMARK    6  A    between atoms: _8  and  _9
REMARK    7  A    between atoms: _19  and  _20
REMARK    8  A    between atoms: _25  and  _27
REMARK    9  A    between atoms: _27  and  _28
REMARK   10  A    between atoms: _27  and  _30
REMARK   11  A    between atoms: _30  and  _31
REMARK   12  A    between atoms: _34  and  _36
REMARK   13  A    between atoms: _36  and  _37
REMARK   14  A    between atoms: _39  and  _41
REMARK   15  A    between atoms: _41  and  _42
REMARK   16  A    between atoms: _41  and  _44
REMARK   17  A    between atoms: _44  and  _45
REMARK   18  A    between atoms: _45  and  _46
REMARK   19  A    between atoms: _46  and  _47
REMARK   20  A    between atoms: _47  and  _48
REMARK   21  A    between atoms: _52  and  _54
REMARK   22  A    between atoms: _54  and  _55
REMARK   23  A    between atoms: _57  and  _59
REMARK   24  A    between atoms: _59  and  _60
REMARK   25  A    between atoms: _59  and  _62
REMARK   26  A    between atoms: _62  and  _63
REMARK   27  A    between atoms: _63  and  _64
REMARK   28  A    between atoms: _64  and  _65
REMARK   29  A    between atoms: _65  and  _66
REMARK   30  A    between atoms: _70  and  _72
REMARK   31  A    between atoms: _72  and  _73
REMARK   32  A    between atoms: _72  and  _75
REMARK   33  A    between atoms: _75  and  _76
REMARK   34  A    between atoms: _82  and  _84
REMARK   35  A    between atoms: _84  and  _85
REMARK   36  A    between atoms: _87  and  _89
REMARK   37  A    between atoms: _89  and  _90
REMARK   38  A    between atoms: _89  and  _92
REMARK   39  A    between atoms: _92  and  _93
REMARK   40  A    between atoms: _98  and  _100
REMARK   41  A    between atoms: _100  and  _101
REMARK   42  A    between atoms: _100  and  _103
REMARK   43  A    between atoms: _106  and  _108
REMARK   44  A    between atoms: _108  and  _109
REMARK   45  A    between atoms: _108  and  _111
REMARK   46  A    between atoms: _111  and  _112
REMARK   47  A    between atoms: _117  and  _118
REMARK   48  A    between atoms: _120  and  _122
REMARK   49  A    between atoms: _122  and  _123
REMARK   50  A    between atoms: _122  and  _125
REMARK   51  A    between atoms: _125  and  _126
REMARK   52  A    between atoms: _129  and  _131
REMARK   53  A    between atoms: _131  and  _132
REMARK   54  A    between atoms: _135  and  _137
REMARK   55  A    between atoms: _137  and  _138
REMARK   56  A    between atoms: _137  and  _140
REMARK   57  A    between atoms: _140  and  _141
REMARK   58  A    between atoms: _141  and  _142
REMARK   59  A    between atoms: _144  and  _146
REMARK   60  A    between atoms: _146  and  _147
REMARK   61  A    between atoms: _150  and  _152
REMARK   62  A    between atoms: _152  and  _153
REMARK   63  A    between atoms: _152  and  _155
REMARK   64  A    between atoms: _155  and  _156
REMARK   65  A    between atoms: _159  and  _161
REMARK   66  A    between atoms: _161  and  _162
REMARK   67  A    between atoms: _161  and  _164
REMARK   68  A    between atoms: _164  and  _165
REMARK   69  A    between atoms: _165  and  _166
REMARK   70  A    between atoms: _166  and  _167
REMARK   71  A    between atoms: _167  and  _168
REMARK   72  A    between atoms: _172  and  _174
REMARK   73  A    between atoms: _174  and  _175
REMARK   74  A    between atoms: _174  and  _177
REMARK   75  A    between atoms: _180  and  _182
REMARK   76  A    between atoms: _182  and  _183
REMARK   77  A    between atoms: _182  and  _185
REMARK   78  A    between atoms: _185  and  _186
REMARK   79  A    between atoms: _189  and  _191
REMARK   80  A    between atoms: _191  and  _192
REMARK   81  A    between atoms: _191  and  _194
REMARK   82  A    between atoms: _194  and  _195
REMARK   83  A    between atoms: _198  and  _200
REMARK   84  A    between atoms: _200  and  _201
REMARK   85  A    between atoms: _200  and  _203
REMARK   86  A    between atoms: _203  and  _204
REMARK   87  A    between atoms: _204  and  _205
REMARK   88  A    between atoms: _210  and  _212
REMARK   89  A    between atoms: _212  and  _213
REMARK   90  A    between atoms: _212  and  _215
REMARK   91  A    between atoms: _215  and  _216
REMARK   92  A    between atoms: _219  and  _221
REMARK   93  A    between atoms: _221  and  _222
REMARK   94  A    between atoms: _221  and  _224
REMARK   95  A    between atoms: _224  and  _225
REMARK   96  A    between atoms: _225  and  _226
REMARK   97  A    between atoms: _226  and  _227
REMARK   98  A    between atoms: _236  and  _238
REMARK   99  A    between atoms: _238  and  _239
REMARK  100  A    between atoms: _238  and  _241
REMARK  101  A    between atoms: _241  and  _242
REMARK  102  A    between atoms: _242  and  _243
REMARK  103  A    between atoms: _243  and  _244
REMARK  104  A    between atoms: _253  and  _255
REMARK  105  A    between atoms: _255  and  _256
REMARK  106  A    between atoms: _255  and  _258
REMARK  107  A    between atoms: _258  and  _259
REMARK  108  A    between atoms: _259  and  _260
REMARK  109  A    between atoms: _263  and  _265
REMARK  110  A    between atoms: _265  and  _266
REMARK  111  A    between atoms: _265  and  _268
REMARK  112  A    between atoms: _268  and  _269
REMARK  113  A    between atoms: _272  and  _274
REMARK  114  A    between atoms: _274  and  _275
REMARK  115  A    between atoms: _274  and  _277
REMARK  116  A    between atoms: _277  and  _278
REMARK  117  A    between atoms: _278  and  _279
REMARK  118  A    between atoms: _282  and  _284
REMARK  119  A    between atoms: _284  and  _285
REMARK  120  A    between atoms: _284  and  _287
REMARK  121  A    between atoms: _287  and  _288
REMARK  122  A    between atoms: _291  and  _293
REMARK  123  A    between atoms: _293  and  _294
REMARK  124  A    between atoms: _293  and  _296
REMARK  125  A    between atoms: _296  and  _297
REMARK  126  A    between atoms: _297  and  _298
REMARK  127  A    between atoms: _303  and  _305
REMARK  128  A    between atoms: _305  and  _306
REMARK  129  A    between atoms: _305  and  _308
REMARK  130  A    between atoms: _308  and  _309
REMARK  131  A    between atoms: _311  and  _313
REMARK  132  A    between atoms: _313  and  _314
REMARK  133  A    between atoms: _313  and  _316
REMARK  134  A    between atoms: _316  and  _317
REMARK  135  A    between atoms: _320  and  _322
REMARK  136  A    between atoms: _322  and  _323
REMARK  137  A    between atoms: _322  and  _325
REMARK  138  A    between atoms: _325  and  _326
REMARK  139  A    between atoms: _326  and  _327
REMARK  140  A    between atoms: _327  and  _328
REMARK  141  A    between atoms: _337  and  _339
REMARK  142  A    between atoms: _339  and  _340
REMARK  143  A    between atoms: _339  and  _342
REMARK  144  A    between atoms: _342  and  _343
REMARK  145  A    between atoms: _343  and  _344
REMARK  146  A    between atoms: _346  and  _348
REMARK  147  A    between atoms: _348  and  _349
REMARK  148  A    between atoms: _348  and  _351
REMARK  149  A    between atoms: _351  and  _352
REMARK  150  A    between atoms: _355  and  _357
REMARK  151  A    between atoms: _357  and  _358
REMARK  152  A    between atoms: _357  and  _360
REMARK  153  A    between atoms: _360  and  _361
REMARK  154  A    between atoms: _364  and  _366
REMARK  155  A    between atoms: _366  and  _367
REMARK  156  A    between atoms: _366  and  _369
REMARK  157  A    between atoms: _369  and  _370
REMARK  158  A    between atoms: _370  and  _371
REMARK  159  A    between atoms: _373  and  _375
REMARK  160  A    between atoms: _375  and  _376
REMARK  161  A    between atoms: _375  and  _378
REMARK  162  A    between atoms: _378  and  _379
REMARK  163  A    between atoms: _382  and  _384
REMARK  164  A    between atoms: _384  and  _385
REMARK  165  A    between atoms: _384  and  _387
REMARK  166  A    between atoms: _387  and  _388
REMARK  167  A    between atoms: _388  and  _389
REMARK  168  A    between atoms: _392  and  _394
REMARK  169  A    between atoms: _394  and  _395
REMARK  170  A    between atoms: _394  and  _397
REMARK  171  A    between atoms: _397  and  _398
REMARK  172  A    between atoms: _404  and  _406
REMARK  173  A    between atoms: _406  and  _407
REMARK  174  A    between atoms: _411  and  _412
REMARK  175  A    between atoms: _417  and  _419
REMARK  176  A    between atoms: _419  and  _420
REMARK  177  A    between atoms: _419  and  _422
REMARK  178  A    between atoms: _422  and  _423
REMARK  179  A    between atoms: _423  and  _424
REMARK  180  A    between atoms: _424  and  _425
REMARK  181  A    between atoms: _434  and  _436
REMARK  182  A    between atoms: _436  and  _437
REMARK  183  A    between atoms: _439  and  _441
REMARK  184  A    between atoms: _441  and  _442
REMARK  185  A    between atoms: _441  and  _444
REMARK  186  A    between atoms: _444  and  _445
REMARK  187  A    between atoms: _445  and  _446
REMARK  188  A    between atoms: _449  and  _451
REMARK  189  A    between atoms: _451  and  _452
REMARK  190  A    between atoms: _451  and  _454
REMARK  191  A    between atoms: _454  and  _455
REMARK  192  A    between atoms: _458  and  _460
REMARK  193  A    between atoms: _460  and  _461
REMARK  194  A    between atoms: _460  and  _463
REMARK  195  A    between atoms: _463  and  _464
REMARK  196  A    between atoms: _464  and  _465
REMARK  197  A    between atoms: _465  and  _466
REMARK  198  A    between atoms: _466  and  _467
REMARK  199  A    between atoms: _471  and  _473
REMARK  200  A    between atoms: _473  and  _474
REMARK  201  A    between atoms: _473  and  _476
REMARK  202  A    between atoms: _476  and  _477
REMARK  203  A    between atoms: _477  and  _478
REMARK  204  A    between atoms: _481  and  _483
REMARK  205  A    between atoms: _483  and  _484
REMARK  206  A    between atoms: _483  and  _486
REMARK  207  A    between atoms: _486  and  _487
REMARK  208  A    between atoms: _487  and  _488
REMARK  209  A    between atoms: _488  and  _489
REMARK  210  A    between atoms: _489  and  _490
REMARK  211  A    between atoms: _494  and  _496
REMARK  212  A    between atoms: _496  and  _497
REMARK  213  A    between atoms: _496  and  _499
REMARK  214  A    between atoms: _499  and  _500
REMARK  215  A    between atoms: _500  and  _501
REMARK  216  A    between atoms: _504  and  _506
REMARK  217  A    between atoms: _506  and  _507
REMARK  218  A    between atoms: _506  and  _509
REMARK  219  A    between atoms: _509  and  _510
REMARK  220  A    between atoms: _515  and  _517
REMARK  221  A    between atoms: _517  and  _518
REMARK  222  A    between atoms: _517  and  _520
REMARK  223  A    between atoms: _520  and  _521
REMARK  224  A    between atoms: _524  and  _526
REMARK  225  A    between atoms: _526  and  _527
REMARK  226  A    between atoms: _526  and  _529
REMARK  227  A    between atoms: _529  and  _530
REMARK  228  A    between atoms: _533  and  _535
REMARK  229  A    between atoms: _535  and  _536
REMARK  230  A    between atoms: _535  and  _538
REMARK  231  A    between atoms: _538  and  _539
REMARK  232  A    between atoms: _539  and  _540
REMARK  233  A    between atoms: _542  and  _544
REMARK  234  A    between atoms: _544  and  _545
REMARK  235  A    between atoms: _544  and  _547
REMARK  236  A    between atoms: _547  and  _548
REMARK  237  A    between atoms: _548  and  _549
REMARK  238  A    between atoms: _549  and  _550
REMARK  239  A    between atoms: _550  and  _551
REMARK  240  A    between atoms: _555  and  _557
REMARK  241  A    between atoms: _557  and  _558
REMARK  242  A    between atoms: _557  and  _560
REMARK  243  A    between atoms: _560  and  _561
REMARK  244  A    between atoms: _564  and  _566
REMARK  245  A    between atoms: _566  and  _567
REMARK  246  A    between atoms: _570  and  _572
REMARK  247  A    between atoms: _572  and  _573
REMARK  248  A    between atoms: _572  and  _575
REMARK  249  A    between atoms: _575  and  _576
REMARK  250  A    between atoms: _579  and  _581
REMARK  251  A    between atoms: _581  and  _582
REMARK  252  A    between atoms: _581  and  _584
REMARK  253  A    between atoms: _584  and  _585
REMARK  254  A    between atoms: _591  and  _593
REMARK  255  A    between atoms: _593  and  _594
REMARK  256  A    between atoms: _596  and  _598
REMARK  257  A    between atoms: _598  and  _599
REMARK  258  A    between atoms: _598  and  _601
REMARK  259  A    between atoms: _601  and  _602
REMARK                            x       y       z     vdW  Elec       q    Type
REMARK                         _______ _______ _______ _____ _____    ______ ____
ROOT
ATOM      1  O   HOH     1      11.498 -32.401   3.864  0.00  0.00    +0.000 OA
ENDROOT
TORSDOF 0
REMARK  Name = ../refined-set-2016/4c2v/4c2v_pocket.pdb
REMARK  259 active torsions:
REMARK  status: ('A' for Active; 'I' for Inactive)
REMARK    1  A    between atoms: _1  and  _3
REMARK    2  A    between atoms: _3  and  _4
REMARK    3  A    between atoms: _3  and  _6
REMARK    4  A    between atoms: _6  and  _7
REMARK    5  A    between atoms: _7  and  _8
REMARK    6  A    between atoms: _8  and  _9
REMARK    7  A    between atoms: _19  and  _20
REMARK    8  A    between atoms: _25  and  _27
REMARK    9  A    between atoms: _27  and  _28
REMARK   10  A    between atoms: _27  and  _30
REMARK   11  A    between atoms: _30  and  _31
REMARK   12  A    between atoms: _34  and  _36
REMARK   13  A    between atoms: _36  and  _37
REMARK   14  A    between atoms: _39  and  _41
REMARK   15  A    between atoms: _41  and  _42
REMARK   16  A    between atoms: _41  and  _44
REMARK   17  A    between atoms: _44  and  _45
REMARK   18  A    between atoms: _45  and  _46
REMARK   19  A    between atoms: _46  and  _47
REMARK   20  A    between atoms: _47  and  _48
REMARK   21  A    between atoms: _52  and  _54
REMARK   22  A    between atoms: _54  and  _55
REMARK   23  A    between atoms: _57  and  _59
REMARK   24  A    between atoms: _59  and  _60
REMARK   25  A    between atoms: _59  and  _62
REMARK   26  A    between atoms: _62  and  _63
REMARK   27  A    between atoms: _63  and  _64
REMARK   28  A    between atoms: _64  and  _65
REMARK   29  A    between atoms: _65  and  _66
REMARK   30  A    between atoms: _70  and  _72
REMARK   31  A    between atoms: _72  and  _73
REMARK   32  A    between atoms: _72  and  _75
REMARK   33  A    between atoms: _75  and  _76
REMARK   34  A    between atoms: _82  and  _84
REMARK   35  A    between atoms: _84  and  _85
REMARK   36  A    between atoms: _87  and  _89
REMARK   37  A    between atoms: _89  and  _90
REMARK   38  A    between atoms: _89  and  _92
REMARK   39  A    between atoms: _92  and  _93
REMARK   40  A    between atoms: _98  and  _100
REMARK   41  A    between atoms: _100  and  _101
REMARK   42  A    between atoms: _100  and  _103
REMARK   43  A    between atoms: _106  and  _108
REMARK   44  A    between atoms: _108  and  _109
REMARK   45  A    between atoms: _108  and  _111
REMARK   46  A    between atoms: _111  and  _112
REMARK   47  A    between atoms: _117  and  _118
REMARK   48  A    between atoms: _120  and  _122
REMARK   49  A    between atoms: _122  and  _123
REMARK   50  A    between atoms: _122  and  _125
REMARK   51  A    between atoms: _125  and  _126
REMARK   52  A    between atoms: _129  and  _131
REMARK   53  A    between atoms: _131  and  _132
REMARK   54  A    between atoms: _135  and  _137
REMARK   55  A    between atoms: _137  and  _138
REMARK   56  A    between atoms: _137  and  _140
REMARK   57  A    between atoms: _140  and  _141
REMARK   58  A    between atoms: _141  and  _142
REMARK   59  A    between atoms: _144  and  _146
REMARK   60  A    between atoms: _146  and  _147
REMARK   61  A    between atoms: _150  and  _152
REMARK   62  A    between atoms: _152  and  _153
REMARK   63  A    between atoms: _152  and  _155
REMARK   64  A    between atoms: _155  and  _156
REMARK   65  A    between atoms: _159  and  _161
REMARK   66  A    between atoms: _161  and  _162
REMARK   67  A    between atoms: _161  and  _164
REMARK   68  A    between atoms: _164  and  _165
REMARK   69  A    between atoms: _165  and  _166
REMARK   70  A    between atoms: _166  and  _167
REMARK   71  A    between atoms: _167  and  _168
REMARK   72  A    between atoms: _172  and  _174
REMARK   73  A    between atoms: _174  and  _175
REMARK   74  A    between atoms: _174  and  _177
REMARK   75  A    between atoms: _180  and  _182
REMARK   76  A    between atoms: _182  and  _183
REMARK   77  A    between atoms: _182  and  _185
REMARK   78  A    between atoms: _185  and  _186
REMARK   79  A    between atoms: _189  and  _191
REMARK   80  A    between atoms: _191  and  _192
REMARK   81  A    between atoms: _191  and  _194
REMARK   82  A    between atoms: _194  and  _195
REMARK   83  A    between atoms: _198  and  _200
REMARK   84  A    between atoms: _200  and  _201
REMARK   85  A    between atoms: _200  and  _203
REMARK   86  A    between atoms: _203  and  _204
REMARK   87  A    between atoms: _204  and  _205
REMARK   88  A    between atoms: _210  and  _212
REMARK   89  A    between atoms: _212  and  _213
REMARK   90  A    between atoms: _212  and  _215
REMARK   91  A    between atoms: _215  and  _216
REMARK   92  A    between atoms: _219  and  _221
REMARK   93  A    between atoms: _221  and  _222
REMARK   94  A    between atoms: _221  and  _224
REMARK   95  A    between atoms: _224  and  _225
REMARK   96  A    between atoms: _225  and  _226
REMARK   97  A    between atoms: _226  and  _227
REMARK   98  A    between atoms: _236  and  _238
REMARK   99  A    between atoms: _238  and  _239
REMARK  100  A    between atoms: _238  and  _241
REMARK  101  A    between atoms: _241  and  _242
REMARK  102  A    between atoms: _242  and  _243
REMARK  103  A    between atoms: _243  and  _244
REMARK  104  A    between atoms: _253  and  _255
REMARK  105  A    between atoms: _255  and  _256
REMARK  106  A    between atoms: _255  and  _258
REMARK  107  A    between atoms: _258  and  _259
REMARK  108  A    between atoms: _259  and  _260
REMARK  109  A    between atoms: _263  and  _265
REMARK  110  A    between atoms: _265  and  _266
REMARK  111  A    between atoms: _265  and  _268
REMARK  112  A    between atoms: _268  and  _269
REMARK  113  A    between atoms: _272  and  _274
REMARK  114  A    between atoms: _274  and  _275
REMARK  115  A    between atoms: _274  and  _277
REMARK  116  A    between atoms: _277  and  _278
REMARK  117  A    between atoms: _278  and  _279
REMARK  118  A    between atoms: _282  and  _284
REMARK  119  A    between atoms: _284  and  _285
REMARK  120  A    between atoms: _284  and  _287
REMARK  121  A    between atoms: _287  and  _288
REMARK  122  A    between atoms: _291  and  _293
REMARK  123  A    between atoms: _293  and  _294
REMARK  124  A    between atoms: _293  and  _296
REMARK  125  A    between atoms: _296  and  _297
REMARK  126  A    between atoms: _297  and  _298
REMARK  127  A    between atoms: _303  and  _305
REMARK  128  A    between atoms: _305  and  _306
REMARK  129  A    between atoms: _305  and  _308
REMARK  130  A    between atoms: _308  and  _309
REMARK  131  A    between atoms: _311  and  _313
REMARK  132  A    between atoms: _313  and  _314
REMARK  133  A    between atoms: _313  and  _316
REMARK  134  A    between atoms: _316  and  _317
REMARK  135  A    between atoms: _320  and  _322
REMARK  136  A    between atoms: _322  and  _323
REMARK  137  A    between atoms: _322  and  _325
REMARK  138  A    between atoms: _325  and  _326
REMARK  139  A    between atoms: _326  and  _327
REMARK  140  A    between atoms: _327  and  _328
REMARK  141  A    between atoms: _337  and  _339
REMARK  142  A    between atoms: _339  and  _340
REMARK  143  A    between atoms: _339  and  _342
REMARK  144  A    between atoms: _342  and  _343
REMARK  145  A    between atoms: _343  and  _344
REMARK  146  A    between atoms: _346  and  _348
REMARK  147  A    between atoms: _348  and  _349
REMARK  148  A    between atoms: _348  and  _351
REMARK  149  A    between atoms: _351  and  _352
REMARK  150  A    between atoms: _355  and  _357
REMARK  151  A    between atoms: _357  and  _358
REMARK  152  A    between atoms: _357  and  _360
REMARK  153  A    between atoms: _360  and  _361
REMARK  154  A    between atoms: _364  and  _366
REMARK  155  A    between atoms: _366  and  _367
REMARK  156  A    between atoms: _366  and  _369
REMARK  157  A    between atoms: _369  and  _370
REMARK  158  A    between atoms: _370  and  _371
REMARK  159  A    between atoms: _373  and  _375
REMARK  160  A    between atoms: _375  and  _376
REMARK  161  A    between atoms: _375  and  _378
REMARK  162  A    between atoms: _378  and  _379
REMARK  163  A    between atoms: _382  and  _384
REMARK  164  A    between atoms: _384  and  _385
REMARK  165  A    between atoms: _384  and  _387
REMARK  166  A    between atoms: _387  and  _388
REMARK  167  A    between atoms: _388  and  _389
REMARK  168  A    between atoms: _392  and  _394
REMARK  169  A    between atoms: _394  and  _395
REMARK  170  A    between atoms: _394  and  _397
REMARK  171  A    between atoms: _397  and  _398
REMARK  172  A    between atoms: _404  and  _406
REMARK  173  A    between atoms: _406  and  _407
REMARK  174  A    between atoms: _411  and  _412
REMARK  175  A    between atoms: _417  and  _419
REMARK  176  A    between atoms: _419  and  _420
REMARK  177  A    between atoms: _419  and  _422
REMARK  178  A    between atoms: _422  and  _423
REMARK  179  A    between atoms: _423  and  _424
REMARK  180  A    between atoms: _424  and  _425
REMARK  181  A    between atoms: _434  and  _436
REMARK  182  A    between atoms: _436  and  _437
REMARK  183  A    between atoms: _439  and  _441
REMARK  184  A    between atoms: _441  and  _442
REMARK  185  A    between atoms: _441  and  _444
REMARK  186  A    between atoms: _444  and  _445
REMARK  187  A    between atoms: _445  and  _446
REMARK  188  A    between atoms: _449  and  _451
REMARK  189  A    between atoms: _451  and  _452
REMARK  190  A    between atoms: _451  and  _454
REMARK  191  A    between atoms: _454  and  _455
REMARK  192  A    between atoms: _458  and  _460
REMARK  193  A    between atoms: _460  and  _461
REMARK  194  A    between atoms: _460  and  _463
REMARK  195  A    between atoms: _463  and  _464
REMARK  196  A    between atoms: _464  and  _465
REMARK  197  A    between atoms: _465  and  _466
REMARK  198  A    between atoms: _466  and  _467
REMARK  199  A    between atoms: _471  and  _473
REMARK  200  A    between atoms: _473  and  _474
REMARK  201  A    between atoms: _473  and  _476
REMARK  202  A    between atoms: _476  and  _477
REMARK  203  A    between atoms: _477  and  _478
REMARK  204  A    between atoms: _481  and  _483
REMARK  205  A    between atoms: _483  and  _484
REMARK  206  A    between atoms: _483  and  _486
REMARK  207  A    between atoms: _486  and  _487
REMARK  208  A    between atoms: _487  and  _488
REMARK  209  A    between atoms: _488  and  _489
REMARK  210  A    between atoms: _489  and  _490
REMARK  211  A    between atoms: _494  and  _496
REMARK  212  A    between atoms: _496  and  _497
REMARK  213  A    between atoms: _496  and  _499
REMARK  214  A    between atoms: _499  and  _500
REMARK  215  A    between atoms: _500  and  _501
REMARK  216  A    between atoms: _504  and  _506
REMARK  217  A    between atoms: _506  and  _507
REMARK  218  A    between atoms: _506  and  _509
REMARK  219  A    between atoms: _509  and  _510
REMARK  220  A    between atoms: _515  and  _517
REMARK  221  A    between atoms: _517  and  _518
REMARK  222  A    between atoms: _517  and  _520
REMARK  223  A    between atoms: _520  and  _521
REMARK  224  A    between atoms: _524  and  _526
REMARK  225  A    between atoms: _526  and  _527
REMARK  226  A    between atoms: _526  and  _529
REMARK  227  A    between atoms: _529  and  _530
REMARK  228  A    between atoms: _533  and  _535
REMARK  229  A    between atoms: _535  and  _536
REMARK  230  A    between atoms: _535  and  _538
REMARK  231  A    between atoms: _538  and  _539
REMARK  232  A    between atoms: _539  and  _540
REMARK  233  A    between atoms: _542  and  _544
REMARK  234  A    between atoms: _544  and  _545
REMARK  235  A    between atoms: _544  and  _547
REMARK  236  A    between atoms: _547  and  _548
REMARK  237  A    between atoms: _548  and  _549
REMARK  238  A    between atoms: _549  and  _550
REMARK  239  A    between atoms: _550  and  _551
REMARK  240  A    between atoms: _555  and  _557
REMARK  241  A    between atoms: _557  and  _558
REMARK  242  A    between atoms: _557  and  _560
REMARK  243  A    between atoms: _560  and  _561
REMARK  244  A    between atoms: _564  and  _566
REMARK  245  A    between atoms: _566  and  _567
REMARK  246  A    between atoms: _570  and  _572
REMARK  247  A    between atoms: _572  and  _573
REMARK  248  A    between atoms: _572  and  _575
REMARK  249  A    between atoms: _575  and  _576
REMARK  250  A    between atoms: _579  and  _581
REMARK  251  A    between atoms: _581  and  _582
REMARK  252  A    between atoms: _581  and  _584
REMARK  253  A    between atoms: _584  and  _585
REMARK  254  A    between atoms: _591  and  _593
REMARK  255  A    between atoms: _593  and  _594
REMARK  256  A    between atoms: _596  and  _598
REMARK  257  A    between atoms: _598  and  _599
REMARK  258  A    between atoms: _598  and  _601
REMARK  259  A    between atoms: _601  and  _602
REMARK                            x       y       z     vdW  Elec       q    Type
REMARK                         _______ _______ _______ _____ _____    ______ ____
ROOT
ATOM      1  O   HOH     1       6.447 -32.650   8.819  0.00  0.00    +0.000 OA
ENDROOT
TORSDOF 0
REMARK  Name = ../refined-set-2016/4c2v/4c2v_pocket.pdb
REMARK  259 active torsions:
REMARK  status: ('A' for Active; 'I' for Inactive)
REMARK    1  A    between atoms: _1  and  _3
REMARK    2  A    between atoms: _3  and  _4
REMARK    3  A    between atoms: _3  and  _6
REMARK    4  A    between atoms: _6  and  _7
REMARK    5  A    between atoms: _7  and  _8
REMARK    6  A    between atoms: _8  and  _9
REMARK    7  A    between atoms: _19  and  _20
REMARK    8  A    between atoms: _25  and  _27
REMARK    9  A    between atoms: _27  and  _28
REMARK   10  A    between atoms: _27  and  _30
REMARK   11  A    between atoms: _30  and  _31
REMARK   12  A    between atoms: _34  and  _36
REMARK   13  A    between atoms: _36  and  _37
REMARK   14  A    between atoms: _39  and  _41
REMARK   15  A    between atoms: _41  and  _42
REMARK   16  A    between atoms: _41  and  _44
REMARK   17  A    between atoms: _44  and  _45
REMARK   18  A    between atoms: _45  and  _46
REMARK   19  A    between atoms: _46  and  _47
REMARK   20  A    between atoms: _47  and  _48
REMARK   21  A    between atoms: _52  and  _54
REMARK   22  A    between atoms: _54  and  _55
REMARK   23  A    between atoms: _57  and  _59
REMARK   24  A    between atoms: _59  and  _60
REMARK   25  A    between atoms: _59  and  _62
REMARK   26  A    between atoms: _62  and  _63
REMARK   27  A    between atoms: _63  and  _64
REMARK   28  A    between atoms: _64  and  _65
REMARK   29  A    between atoms: _65  and  _66
REMARK   30  A    between atoms: _70  and  _72
REMARK   31  A    between atoms: _72  and  _73
REMARK   32  A    between atoms: _72  and  _75
REMARK   33  A    between atoms: _75  and  _76
REMARK   34  A    between atoms: _82  and  _84
REMARK   35  A    between atoms: _84  and  _85
REMARK   36  A    between atoms: _87  and  _89
REMARK   37  A    between atoms: _89  and  _90
REMARK   38  A    between atoms: _89  and  _92
REMARK   39  A    between atoms: _92  and  _93
REMARK   40  A    between atoms: _98  and  _100
REMARK   41  A    between atoms: _100  and  _101
REMARK   42  A    between atoms: _100  and  _103
REMARK   43  A    between atoms: _106  and  _108
REMARK   44  A    between atoms: _108  and  _109
REMARK   45  A    between atoms: _108  and  _111
REMARK   46  A    between atoms: _111  and  _112
REMARK   47  A    between atoms: _117  and  _118
REMARK   48  A    between atoms: _120  and  _122
REMARK   49  A    between atoms: _122  and  _123
REMARK   50  A    between atoms: _122  and  _125
REMARK   51  A    between atoms: _125  and  _126
REMARK   52  A    between atoms: _129  and  _131
REMARK   53  A    between atoms: _131  and  _132
REMARK   54  A    between atoms: _135  and  _137
REMARK   55  A    between atoms: _137  and  _138
REMARK   56  A    between atoms: _137  and  _140
REMARK   57  A    between atoms: _140  and  _141
REMARK   58  A    between atoms: _141  and  _142
REMARK   59  A    between atoms: _144  and  _146
REMARK   60  A    between atoms: _146  and  _147
REMARK   61  A    between atoms: _150  and  _152
REMARK   62  A    between atoms: _152  and  _153
REMARK   63  A    between atoms: _152  and  _155
REMARK   64  A    between atoms: _155  and  _156
REMARK   65  A    between atoms: _159  and  _161
REMARK   66  A    between atoms: _161  and  _162
REMARK   67  A    between atoms: _161  and  _164
REMARK   68  A    between atoms: _164  and  _165
REMARK   69  A    between atoms: _165  and  _166
REMARK   70  A    between atoms: _166  and  _167
REMARK   71  A    between atoms: _167  and  _168
REMARK   72  A    between atoms: _172  and  _174
REMARK   73  A    between atoms: _174  and  _175
REMARK   74  A    between atoms: _174  and  _177
REMARK   75  A    between atoms: _180  and  _182
REMARK   76  A    between atoms: _182  and  _183
REMARK   77  A    between atoms: _182  and  _185
REMARK   78  A    between atoms: _185  and  _186
REMARK   79  A    between atoms: _189  and  _191
REMARK   80  A    between atoms: _191  and  _192
REMARK   81  A    between atoms: _191  and  _194
REMARK   82  A    between atoms: _194  and  _195
REMARK   83  A    between atoms: _198  and  _200
REMARK   84  A    between atoms: _200  and  _201
REMARK   85  A    between atoms: _200  and  _203
REMARK   86  A    between atoms: _203  and  _204
REMARK   87  A    between atoms: _204  and  _205
REMARK   88  A    between atoms: _210  and  _212
REMARK   89  A    between atoms: _212  and  _213
REMARK   90  A    between atoms: _212  and  _215
REMARK   91  A    between atoms: _215  and  _216
REMARK   92  A    between atoms: _219  and  _221
REMARK   93  A    between atoms: _221  and  _222
REMARK   94  A    between atoms: _221  and  _224
REMARK   95  A    between atoms: _224  and  _225
REMARK   96  A    between atoms: _225  and  _226
REMARK   97  A    between atoms: _226  and  _227
REMARK   98  A    between atoms: _236  and  _238
REMARK   99  A    between atoms: _238  and  _239
REMARK  100  A    between atoms: _238  and  _241
REMARK  101  A    between atoms: _241  and  _242
REMARK  102  A    between atoms: _242  and  _243
REMARK  103  A    between atoms: _243  and  _244
REMARK  104  A    between atoms: _253  and  _255
REMARK  105  A    between atoms: _255  and  _256
REMARK  106  A    between atoms: _255  and  _258
REMARK  107  A    between atoms: _258  and  _259
REMARK  108  A    between atoms: _259  and  _260
REMARK  109  A    between atoms: _263  and  _265
REMARK  110  A    between atoms: _265  and  _266
REMARK  111  A    between atoms: _265  and  _268
REMARK  112  A    between atoms: _268  and  _269
REMARK  113  A    between atoms: _272  and  _274
REMARK  114  A    between atoms: _274  and  _275
REMARK  115  A    between atoms: _274  and  _277
REMARK  116  A    between atoms: _277  and  _278
REMARK  117  A    between atoms: _278  and  _279
REMARK  118  A    between atoms: _282  and  _284
REMARK  119  A    between atoms: _284  and  _285
REMARK  120  A    between atoms: _284  and  _287
REMARK  121  A    between atoms: _287  and  _288
REMARK  122  A    between atoms: _291  and  _293
REMARK  123  A    between atoms: _293  and  _294
REMARK  124  A    between atoms: _293  and  _296
REMARK  125  A    between atoms: _296  and  _297
REMARK  126  A    between atoms: _297  and  _298
REMARK  127  A    between atoms: _303  and  _305
REMARK  128  A    between atoms: _305  and  _306
REMARK  129  A    between atoms: _305  and  _308
REMARK  130  A    between atoms: _308  and  _309
REMARK  131  A    between atoms: _311  and  _313
REMARK  132  A    between atoms: _313  and  _314
REMARK  133  A    between atoms: _313  and  _316
REMARK  134  A    between atoms: _316  and  _317
REMARK  135  A    between atoms: _320  and  _322
REMARK  136  A    between atoms: _322  and  _323
REMARK  137  A    between atoms: _322  and  _325
REMARK  138  A    between atoms: _325  and  _326
REMARK  139  A    between atoms: _326  and  _327
REMARK  140  A    between atoms: _327  and  _328
REMARK  141  A    between atoms: _337  and  _339
REMARK  142  A    between atoms: _339  and  _340
REMARK  143  A    between atoms: _339  and  _342
REMARK  144  A    between atoms: _342  and  _343
REMARK  145  A    between atoms: _343  and  _344
REMARK  146  A    between atoms: _346  and  _348
REMARK  147  A    between atoms: _348  and  _349
REMARK  148  A    between atoms: _348  and  _351
REMARK  149  A    between atoms: _351  and  _352
REMARK  150  A    between atoms: _355  and  _357
REMARK  151  A    between atoms: _357  and  _358
REMARK  152  A    between atoms: _357  and  _360
REMARK  153  A    between atoms: _360  and  _361
REMARK  154  A    between atoms: _364  and  _366
REMARK  155  A    between atoms: _366  and  _367
REMARK  156  A    between atoms: _366  and  _369
REMARK  157  A    between atoms: _369  and  _370
REMARK  158  A    between atoms: _370  and  _371
REMARK  159  A    between atoms: _373  and  _375
REMARK  160  A    between atoms: _375  and  _376
REMARK  161  A    between atoms: _375  and  _378
REMARK  162  A    between atoms: _378  and  _379
REMARK  163  A    between atoms: _382  and  _384
REMARK  164  A    between atoms: _384  and  _385
REMARK  165  A    between atoms: _384  and  _387
REMARK  166  A    between atoms: _387  and  _388
REMARK  167  A    between atoms: _388  and  _389
REMARK  168  A    between atoms: _392  and  _394
REMARK  169  A    between atoms: _394  and  _395
REMARK  170  A    between atoms: _394  and  _397
REMARK  171  A    between atoms: _397  and  _398
REMARK  172  A    between atoms: _404  and  _406
REMARK  173  A    between atoms: _406  and  _407
REMARK  174  A    between atoms: _411  and  _412
REMARK  175  A    between atoms: _417  and  _419
REMARK  176  A    between atoms: _419  and  _420
REMARK  177  A    between atoms: _419  and  _422
REMARK  178  A    between atoms: _422  and  _423
REMARK  179  A    between atoms: _423  and  _424
REMARK  180  A    between atoms: _424  and  _425
REMARK  181  A    between atoms: _434  and  _436
REMARK  182  A    between atoms: _436  and  _437
REMARK  183  A    between atoms: _439  and  _441
REMARK  184  A    between atoms: _441  and  _442
REMARK  185  A    between atoms: _441  and  _444
REMARK  186  A    between atoms: _444  and  _445
REMARK  187  A    between atoms: _445  and  _446
REMARK  188  A    between atoms: _449  and  _451
REMARK  189  A    between atoms: _451  and  _452
REMARK  190  A    between atoms: _451  and  _454
REMARK  191  A    between atoms: _454  and  _455
REMARK  192  A    between atoms: _458  and  _460
REMARK  193  A    between atoms: _460  and  _461
REMARK  194  A    between atoms: _460  and  _463
REMARK  195  A    between atoms: _463  and  _464
REMARK  196  A    between atoms: _464  and  _465
REMARK  197  A    between atoms: _465  and  _466
REMARK  198  A    between atoms: _466  and  _467
REMARK  199  A    between atoms: _471  and  _473
REMARK  200  A    between atoms: _473  and  _474
REMARK  201  A    between atoms: _473  and  _476
REMARK  202  A    between atoms: _476  and  _477
REMARK  203  A    between atoms: _477  and  _478
REMARK  204  A    between atoms: _481  and  _483
REMARK  205  A    between atoms: _483  and  _484
REMARK  206  A    between atoms: _483  and  _486
REMARK  207  A    between atoms: _486  and  _487
REMARK  208  A    between atoms: _487  and  _488
REMARK  209  A    between atoms: _488  and  _489
REMARK  210  A    between atoms: _489  and  _490
REMARK  211  A    between atoms: _494  and  _496
REMARK  212  A    between atoms: _496  and  _497
REMARK  213  A    between atoms: _496  and  _499
REMARK  214  A    between atoms: _499  and  _500
REMARK  215  A    between atoms: _500  and  _501
REMARK  216  A    between atoms: _504  and  _506
REMARK  217  A    between atoms: _506  and  _507
REMARK  218  A    between atoms: _506  and  _509
REMARK  219  A    between atoms: _509  and  _510
REMARK  220  A    between atoms: _515  and  _517
REMARK  221  A    between atoms: _517  and  _518
REMARK  222  A    between atoms: _517  and  _520
REMARK  223  A    between atoms: _520  and  _521
REMARK  224  A    between atoms: _524  and  _526
REMARK  225  A    between atoms: _526  and  _527
REMARK  226  A    between atoms: _526  and  _529
REMARK  227  A    between atoms: _529  and  _530
REMARK  228  A    between atoms: _533  and  _535
REMARK  229  A    between atoms: _535  and  _536
REMARK  230  A    between atoms: _535  and  _538
REMARK  231  A    between atoms: _538  and  _539
REMARK  232  A    between atoms: _539  and  _540
REMARK  233  A    between atoms: _542  and  _544
REMARK  234  A    between atoms: _544  and  _545
REMARK  235  A    between atoms: _544  and  _547
REMARK  236  A    between atoms: _547  and  _548
REMARK  237  A    between atoms: _548  and  _549
REMARK  238  A    between atoms: _549  and  _550
REMARK  239  A    between atoms: _550  and  _551
REMARK  240  A    between atoms: _555  and  _557
REMARK  241  A    between atoms: _557  and  _558
REMARK  242  A    between atoms: _557  and  _560
REMARK  243  A    between atoms: _560  and  _561
REMARK  244  A    between atoms: _564  and  _566
REMARK  245  A    between atoms: _566  and  _567
REMARK  246  A    between atoms: _570  and  _572
REMARK  247  A    between atoms: _572  and  _573
REMARK  248  A    between atoms: _572  and  _575
REMARK  249  A    between atoms: _575  and  _576
REMARK  250  A    between atoms: _579  and  _581
REMARK  251  A    between atoms: _581  and  _582
REMARK  252  A    between atoms: _581  and  _584
REMARK  253  A    between atoms: _584  and  _585
REMARK  254  A    between atoms: _591  and  _593
REMARK  255  A    between atoms: _593  and  _594
REMARK  256  A    between atoms: _596  and  _598
REMARK  257  A    between atoms: _598  and  _599
REMARK  258  A    between atoms: _598  and  _601
REMARK  259  A    between atoms: _601  and  _602
REMARK                            x       y       z     vdW  Elec       q    Type
REMARK                         _______ _______ _______ _____ _____    ______ ____
ROOT
ATOM      1  O   HOH     1       5.665 -28.748   8.541  0.00  0.00    +0.000 OA
ENDROOT
TORSDOF 0
REMARK  Name = ../refined-set-2016/4c2v/4c2v_pocket.pdb
REMARK  259 active torsions:
REMARK  status: ('A' for Active; 'I' for Inactive)
REMARK    1  A    between atoms: _1  and  _3
REMARK    2  A    between atoms: _3  and  _4
REMARK    3  A    between atoms: _3  and  _6
REMARK    4  A    between atoms: _6  and  _7
REMARK    5  A    between atoms: _7  and  _8
REMARK    6  A    between atoms: _8  and  _9
REMARK    7  A    between atoms: _19  and  _20
REMARK    8  A    between atoms: _25  and  _27
REMARK    9  A    between atoms: _27  and  _28
REMARK   10  A    between atoms: _27  and  _30
REMARK   11  A    between atoms: _30  and  _31
REMARK   12  A    between atoms: _34  and  _36
REMARK   13  A    between atoms: _36  and  _37
REMARK   14  A    between atoms: _39  and  _41
REMARK   15  A    between atoms: _41  and  _42
REMARK   16  A    between atoms: _41  and  _44
REMARK   17  A    between atoms: _44  and  _45
REMARK   18  A    between atoms: _45  and  _46
REMARK   19  A    between atoms: _46  and  _47
REMARK   20  A    between atoms: _47  and  _48
REMARK   21  A    between atoms: _52  and  _54
REMARK   22  A    between atoms: _54  and  _55
REMARK   23  A    between atoms: _57  and  _59
REMARK   24  A    between atoms: _59  and  _60
REMARK   25  A    between atoms: _59  and  _62
REMARK   26  A    between atoms: _62  and  _63
REMARK   27  A    between atoms: _63  and  _64
REMARK   28  A    between atoms: _64  and  _65
REMARK   29  A    between atoms: _65  and  _66
REMARK   30  A    between atoms: _70  and  _72
REMARK   31  A    between atoms: _72  and  _73
REMARK   32  A    between atoms: _72  and  _75
REMARK   33  A    between atoms: _75  and  _76
REMARK   34  A    between atoms: _82  and  _84
REMARK   35  A    between atoms: _84  and  _85
REMARK   36  A    between atoms: _87  and  _89
REMARK   37  A    between atoms: _89  and  _90
REMARK   38  A    between atoms: _89  and  _92
REMARK   39  A    between atoms: _92  and  _93
REMARK   40  A    between atoms: _98  and  _100
REMARK   41  A    between atoms: _100  and  _101
REMARK   42  A    between atoms: _100  and  _103
REMARK   43  A    between atoms: _106  and  _108
REMARK   44  A    between atoms: _108  and  _109
REMARK   45  A    between atoms: _108  and  _111
REMARK   46  A    between atoms: _111  and  _112
REMARK   47  A    between atoms: _117  and  _118
REMARK   48  A    between atoms: _120  and  _122
REMARK   49  A    between atoms: _122  and  _123
REMARK   50  A    between atoms: _122  and  _125
REMARK   51  A    between atoms: _125  and  _126
REMARK   52  A    between atoms: _129  and  _131
REMARK   53  A    between atoms: _131  and  _132
REMARK   54  A    between atoms: _135  and  _137
REMARK   55  A    between atoms: _137  and  _138
REMARK   56  A    between atoms: _137  and  _140
REMARK   57  A    between atoms: _140  and  _141
REMARK   58  A    between atoms: _141  and  _142
REMARK   59  A    between atoms: _144  and  _146
REMARK   60  A    between atoms: _146  and  _147
REMARK   61  A    between atoms: _150  and  _152
REMARK   62  A    between atoms: _152  and  _153
REMARK   63  A    between atoms: _152  and  _155
REMARK   64  A    between atoms: _155  and  _156
REMARK   65  A    between atoms: _159  and  _161
REMARK   66  A    between atoms: _161  and  _162
REMARK   67  A    between atoms: _161  and  _164
REMARK   68  A    between atoms: _164  and  _165
REMARK   69  A    between atoms: _165  and  _166
REMARK   70  A    between atoms: _166  and  _167
REMARK   71  A    between atoms: _167  and  _168
REMARK   72  A    between atoms: _172  and  _174
REMARK   73  A    between atoms: _174  and  _175
REMARK   74  A    between atoms: _174  and  _177
REMARK   75  A    between atoms: _180  and  _182
REMARK   76  A    between atoms: _182  and  _183
REMARK   77  A    between atoms: _182  and  _185
REMARK   78  A    between atoms: _185  and  _186
REMARK   79  A    between atoms: _189  and  _191
REMARK   80  A    between atoms: _191  and  _192
REMARK   81  A    between atoms: _191  and  _194
REMARK   82  A    between atoms: _194  and  _195
REMARK   83  A    between atoms: _198  and  _200
REMARK   84  A    between atoms: _200  and  _201
REMARK   85  A    between atoms: _200  and  _203
REMARK   86  A    between atoms: _203  and  _204
REMARK   87  A    between atoms: _204  and  _205
REMARK   88  A    between atoms: _210  and  _212
REMARK   89  A    between atoms: _212  and  _213
REMARK   90  A    between atoms: _212  and  _215
REMARK   91  A    between atoms: _215  and  _216
REMARK   92  A    between atoms: _219  and  _221
REMARK   93  A    between atoms: _221  and  _222
REMARK   94  A    between atoms: _221  and  _224
REMARK   95  A    between atoms: _224  and  _225
REMARK   96  A    between atoms: _225  and  _226
REMARK   97  A    between atoms: _226  and  _227
REMARK   98  A    between atoms: _236  and  _238
REMARK   99  A    between atoms: _238  and  _239
REMARK  100  A    between atoms: _238  and  _241
REMARK  101  A    between atoms: _241  and  _242
REMARK  102  A    between atoms: _242  and  _243
REMARK  103  A    between atoms: _243  and  _244
REMARK  104  A    between atoms: _253  and  _255
REMARK  105  A    between atoms: _255  and  _256
REMARK  106  A    between atoms: _255  and  _258
REMARK  107  A    between atoms: _258  and  _259
REMARK  108  A    between atoms: _259  and  _260
REMARK  109  A    between atoms: _263  and  _265
REMARK  110  A    between atoms: _265  and  _266
REMARK  111  A    between atoms: _265  and  _268
REMARK  112  A    between atoms: _268  and  _269
REMARK  113  A    between atoms: _272  and  _274
REMARK  114  A    between atoms: _274  and  _275
REMARK  115  A    between atoms: _274  and  _277
REMARK  116  A    between atoms: _277  and  _278
REMARK  117  A    between atoms: _278  and  _279
REMARK  118  A    between atoms: _282  and  _284
REMARK  119  A    between atoms: _284  and  _285
REMARK  120  A    between atoms: _284  and  _287
REMARK  121  A    between atoms: _287  and  _288
REMARK  122  A    between atoms: _291  and  _293
REMARK  123  A    between atoms: _293  and  _294
REMARK  124  A    between atoms: _293  and  _296
REMARK  125  A    between atoms: _296  and  _297
REMARK  126  A    between atoms: _297  and  _298
REMARK  127  A    between atoms: _303  and  _305
REMARK  128  A    between atoms: _305  and  _306
REMARK  129  A    between atoms: _305  and  _308
REMARK  130  A    between atoms: _308  and  _309
REMARK  131  A    between atoms: _311  and  _313
REMARK  132  A    between atoms: _313  and  _314
REMARK  133  A    between atoms: _313  and  _316
REMARK  134  A    between atoms: _316  and  _317
REMARK  135  A    between atoms: _320  and  _322
REMARK  136  A    between atoms: _322  and  _323
REMARK  137  A    between atoms: _322  and  _325
REMARK  138  A    between atoms: _325  and  _326
REMARK  139  A    between atoms: _326  and  _327
REMARK  140  A    between atoms: _327  and  _328
REMARK  141  A    between atoms: _337  and  _339
REMARK  142  A    between atoms: _339  and  _340
REMARK  143  A    between atoms: _339  and  _342
REMARK  144  A    between atoms: _342  and  _343
REMARK  145  A    between atoms: _343  and  _344
REMARK  146  A    between atoms: _346  and  _348
REMARK  147  A    between atoms: _348  and  _349
REMARK  148  A    between atoms: _348  and  _351
REMARK  149  A    between atoms: _351  and  _352
REMARK  150  A    between atoms: _355  and  _357
REMARK  151  A    between atoms: _357  and  _358
REMARK  152  A    between atoms: _357  and  _360
REMARK  153  A    between atoms: _360  and  _361
REMARK  154  A    between atoms: _364  and  _366
REMARK  155  A    between atoms: _366  and  _367
REMARK  156  A    between atoms: _366  and  _369
REMARK  157  A    between atoms: _369  and  _370
REMARK  158  A    between atoms: _370  and  _371
REMARK  159  A    between atoms: _373  and  _375
REMARK  160  A    between atoms: _375  and  _376
REMARK  161  A    between atoms: _375  and  _378
REMARK  162  A    between atoms: _378  and  _379
REMARK  163  A    between atoms: _382  and  _384
REMARK  164  A    between atoms: _384  and  _385
REMARK  165  A    between atoms: _384  and  _387
REMARK  166  A    between atoms: _387  and  _388
REMARK  167  A    between atoms: _388  and  _389
REMARK  168  A    between atoms: _392  and  _394
REMARK  169  A    between atoms: _394  and  _395
REMARK  170  A    between atoms: _394  and  _397
REMARK  171  A    between atoms: _397  and  _398
REMARK  172  A    between atoms: _404  and  _406
REMARK  173  A    between atoms: _406  and  _407
REMARK  174  A    between atoms: _411  and  _412
REMARK  175  A    between atoms: _417  and  _419
REMARK  176  A    between atoms: _419  and  _420
REMARK  177  A    between atoms: _419  and  _422
REMARK  178  A    between atoms: _422  and  _423
REMARK  179  A    between atoms: _423  and  _424
REMARK  180  A    between atoms: _424  and  _425
REMARK  181  A    between atoms: _434  and  _436
REMARK  182  A    between atoms: _436  and  _437
REMARK  183  A    between atoms: _439  and  _441
REMARK  184  A    between atoms: _441  and  _442
REMARK  185  A    between atoms: _441  and  _444
REMARK  186  A    between atoms: _444  and  _445
REMARK  187  A    between atoms: _445  and  _446
REMARK  188  A    between atoms: _449  and  _451
REMARK  189  A    between atoms: _451  and  _452
REMARK  190  A    between atoms: _451  and  _454
REMARK  191  A    between atoms: _454  and  _455
REMARK  192  A    between atoms: _458  and  _460
REMARK  193  A    between atoms: _460  and  _461
REMARK  194  A    between atoms: _460  and  _463
REMARK  195  A    between atoms: _463  and  _464
REMARK  196  A    between atoms: _464  and  _465
REMARK  197  A    between atoms: _465  and  _466
REMARK  198  A    between atoms: _466  and  _467
REMARK  199  A    between atoms: _471  and  _473
REMARK  200  A    between atoms: _473  and  _474
REMARK  201  A    between atoms: _473  and  _476
REMARK  202  A    between atoms: _476  and  _477
REMARK  203  A    between atoms: _477  and  _478
REMARK  204  A    between atoms: _481  and  _483
REMARK  205  A    between atoms: _483  and  _484
REMARK  206  A    between atoms: _483  and  _486
REMARK  207  A    between atoms: _486  and  _487
REMARK  208  A    between atoms: _487  and  _488
REMARK  209  A    between atoms: _488  and  _489
REMARK  210  A    between atoms: _489  and  _490
REMARK  211  A    between atoms: _494  and  _496
REMARK  212  A    between atoms: _496  and  _497
REMARK  213  A    between atoms: _496  and  _499
REMARK  214  A    between atoms: _499  and  _500
REMARK  215  A    between atoms: _500  and  _501
REMARK  216  A    between atoms: _504  and  _506
REMARK  217  A    between atoms: _506  and  _507
REMARK  218  A    between atoms: _506  and  _509
REMARK  219  A    between atoms: _509  and  _510
REMARK  220  A    between atoms: _515  and  _517
REMARK  221  A    between atoms: _517  and  _518
REMARK  222  A    between atoms: _517  and  _520
REMARK  223  A    between atoms: _520  and  _521
REMARK  224  A    between atoms: _524  and  _526
REMARK  225  A    between atoms: _526  and  _527
REMARK  226  A    between atoms: _526  and  _529
REMARK  227  A    between atoms: _529  and  _530
REMARK  228  A    between atoms: _533  and  _535
REMARK  229  A    between atoms: _535  and  _536
REMARK  230  A    between atoms: _535  and  _538
REMARK  231  A    between atoms: _538  and  _539
REMARK  232  A    between atoms: _539  and  _540
REMARK  233  A    between atoms: _542  and  _544
REMARK  234  A    between atoms: _544  and  _545
REMARK  235  A    between atoms: _544  and  _547
REMARK  236  A    between atoms: _547  and  _548
REMARK  237  A    between atoms: _548  and  _549
REMARK  238  A    between atoms: _549  and  _550
REMARK  239  A    between atoms: _550  and  _551
REMARK  240  A    between atoms: _555  and  _557
REMARK  241  A    between atoms: _557  and  _558
REMARK  242  A    between atoms: _557  and  _560
REMARK  243  A    between atoms: _560  and  _561
REMARK  244  A    between atoms: _564  and  _566
REMARK  245  A    between atoms: _566  and  _567
REMARK  246  A    between atoms: _570  and  _572
REMARK  247  A    between atoms: _572  and  _573
REMARK  248  A    between atoms: _572  and  _575
REMARK  249  A    between atoms: _575  and  _576
REMARK  250  A    between atoms: _579  and  _581
REMARK  251  A    between atoms: _581  and  _582
REMARK  252  A    between atoms: _581  and  _584
REMARK  253  A    between atoms: _584  and  _585
REMARK  254  A    between atoms: _591  and  _593
REMARK  255  A    between atoms: _593  and  _594
REMARK  256  A    between atoms: _596  and  _598
REMARK  257  A    between atoms: _598  and  _599
REMARK  258  A    between atoms: _598  and  _601
REMARK  259  A    between atoms: _601  and  _602
REMARK                            x       y       z     vdW  Elec       q    Type
REMARK                         _______ _______ _______ _____ _____    ______ ____
ROOT
ATOM      1  O   HOH     1       6.594 -27.270   4.452  0.00  0.00    +0.000 OA
ENDROOT
TORSDOF 0
REMARK  Name = ../refined-set-2016/4c2v/4c2v_pocket.pdb
REMARK  259 active torsions:
REMARK  status: ('A' for Active; 'I' for Inactive)
REMARK    1  A    between atoms: _1  and  _3
REMARK    2  A    between atoms: _3  and  _4
REMARK    3  A    between atoms: _3  and  _6
REMARK    4  A    between atoms: _6  and  _7
REMARK    5  A    between atoms: _7  and  _8
REMARK    6  A    between atoms: _8  and  _9
REMARK    7  A    between atoms: _19  and  _20
REMARK    8  A    between atoms: _25  and  _27
REMARK    9  A    between atoms: _27  and  _28
REMARK   10  A    between atoms: _27  and  _30
REMARK   11  A    between atoms: _30  and  _31
REMARK   12  A    between atoms: _34  and  _36
REMARK   13  A    between atoms: _36  and  _37
REMARK   14  A    between atoms: _39  and  _41
REMARK   15  A    between atoms: _41  and  _42
REMARK   16  A    between atoms: _41  and  _44
REMARK   17  A    between atoms: _44  and  _45
REMARK   18  A    between atoms: _45  and  _46
REMARK   19  A    between atoms: _46  and  _47
REMARK   20  A    between atoms: _47  and  _48
REMARK   21  A    between atoms: _52  and  _54
REMARK   22  A    between atoms: _54  and  _55
REMARK   23  A    between atoms: _57  and  _59
REMARK   24  A    between atoms: _59  and  _60
REMARK   25  A    between atoms: _59  and  _62
REMARK   26  A    between atoms: _62  and  _63
REMARK   27  A    between atoms: _63  and  _64
REMARK   28  A    between atoms: _64  and  _65
REMARK   29  A    between atoms: _65  and  _66
REMARK   30  A    between atoms: _70  and  _72
REMARK   31  A    between atoms: _72  and  _73
REMARK   32  A    between atoms: _72  and  _75
REMARK   33  A    between atoms: _75  and  _76
REMARK   34  A    between atoms: _82  and  _84
REMARK   35  A    between atoms: _84  and  _85
REMARK   36  A    between atoms: _87  and  _89
REMARK   37  A    between atoms: _89  and  _90
REMARK   38  A    between atoms: _89  and  _92
REMARK   39  A    between atoms: _92  and  _93
REMARK   40  A    between atoms: _98  and  _100
REMARK   41  A    between atoms: _100  and  _101
REMARK   42  A    between atoms: _100  and  _103
REMARK   43  A    between atoms: _106  and  _108
REMARK   44  A    between atoms: _108  and  _109
REMARK   45  A    between atoms: _108  and  _111
REMARK   46  A    between atoms: _111  and  _112
REMARK   47  A    between atoms: _117  and  _118
REMARK   48  A    between atoms: _120  and  _122
REMARK   49  A    between atoms: _122  and  _123
REMARK   50  A    between atoms: _122  and  _125
REMARK   51  A    between atoms: _125  and  _126
REMARK   52  A    between atoms: _129  and  _131
REMARK   53  A    between atoms: _131  and  _132
REMARK   54  A    between atoms: _135  and  _137
REMARK   55  A    between atoms: _137  and  _138
REMARK   56  A    between atoms: _137  and  _140
REMARK   57  A    between atoms: _140  and  _141
REMARK   58  A    between atoms: _141  and  _142
REMARK   59  A    between atoms: _144  and  _146
REMARK   60  A    between atoms: _146  and  _147
REMARK   61  A    between atoms: _150  and  _152
REMARK   62  A    between atoms: _152  and  _153
REMARK   63  A    between atoms: _152  and  _155
REMARK   64  A    between atoms: _155  and  _156
REMARK   65  A    between atoms: _159  and  _161
REMARK   66  A    between atoms: _161  and  _162
REMARK   67  A    between atoms: _161  and  _164
REMARK   68  A    between atoms: _164  and  _165
REMARK   69  A    between atoms: _165  and  _166
REMARK   70  A    between atoms: _166  and  _167
REMARK   71  A    between atoms: _167  and  _168
REMARK   72  A    between atoms: _172  and  _174
REMARK   73  A    between atoms: _174  and  _175
REMARK   74  A    between atoms: _174  and  _177
REMARK   75  A    between atoms: _180  and  _182
REMARK   76  A    between atoms: _182  and  _183
REMARK   77  A    between atoms: _182  and  _185
REMARK   78  A    between atoms: _185  and  _186
REMARK   79  A    between atoms: _189  and  _191
REMARK   80  A    between atoms: _191  and  _192
REMARK   81  A    between atoms: _191  and  _194
REMARK   82  A    between atoms: _194  and  _195
REMARK   83  A    between atoms: _198  and  _200
REMARK   84  A    between atoms: _200  and  _201
REMARK   85  A    between atoms: _200  and  _203
REMARK   86  A    between atoms: _203  and  _204
REMARK   87  A    between atoms: _204  and  _205
REMARK   88  A    between atoms: _210  and  _212
REMARK   89  A    between atoms: _212  and  _213
REMARK   90  A    between atoms: _212  and  _215
REMARK   91  A    between atoms: _215  and  _216
REMARK   92  A    between atoms: _219  and  _221
REMARK   93  A    between atoms: _221  and  _222
REMARK   94  A    between atoms: _221  and  _224
REMARK   95  A    between atoms: _224  and  _225
REMARK   96  A    between atoms: _225  and  _226
REMARK   97  A    between atoms: _226  and  _227
REMARK   98  A    between atoms: _236  and  _238
REMARK   99  A    between atoms: _238  and  _239
REMARK  100  A    between atoms: _238  and  _241
REMARK  101  A    between atoms: _241  and  _242
REMARK  102  A    between atoms: _242  and  _243
REMARK  103  A    between atoms: _243  and  _244
REMARK  104  A    between atoms: _253  and  _255
REMARK  105  A    between atoms: _255  and  _256
REMARK  106  A    between atoms: _255  and  _258
REMARK  107  A    between atoms: _258  and  _259
REMARK  108  A    between atoms: _259  and  _260
REMARK  109  A    between atoms: _263  and  _265
REMARK  110  A    between atoms: _265  and  _266
REMARK  111  A    between atoms: _265  and  _268
REMARK  112  A    between atoms: _268  and  _269
REMARK  113  A    between atoms: _272  and  _274
REMARK  114  A    between atoms: _274  and  _275
REMARK  115  A    between atoms: _274  and  _277
REMARK  116  A    between atoms: _277  and  _278
REMARK  117  A    between atoms: _278  and  _279
REMARK  118  A    between atoms: _282  and  _284
REMARK  119  A    between atoms: _284  and  _285
REMARK  120  A    between atoms: _284  and  _287
REMARK  121  A    between atoms: _287  and  _288
REMARK  122  A    between atoms: _291  and  _293
REMARK  123  A    between atoms: _293  and  _294
REMARK  124  A    between atoms: _293  and  _296
REMARK  125  A    between atoms: _296  and  _297
REMARK  126  A    between atoms: _297  and  _298
REMARK  127  A    between atoms: _303  and  _305
REMARK  128  A    between atoms: _305  and  _306
REMARK  129  A    between atoms: _305  and  _308
REMARK  130  A    between atoms: _308  and  _309
REMARK  131  A    between atoms: _311  and  _313
REMARK  132  A    between atoms: _313  and  _314
REMARK  133  A    between atoms: _313  and  _316
REMARK  134  A    between atoms: _316  and  _317
REMARK  135  A    between atoms: _320  and  _322
REMARK  136  A    between atoms: _322  and  _323
REMARK  137  A    between atoms: _322  and  _325
REMARK  138  A    between atoms: _325  and  _326
REMARK  139  A    between atoms: _326  and  _327
REMARK  140  A    between atoms: _327  and  _328
REMARK  141  A    between atoms: _337  and  _339
REMARK  142  A    between atoms: _339  and  _340
REMARK  143  A    between atoms: _339  and  _342
REMARK  144  A    between atoms: _342  and  _343
REMARK  145  A    between atoms: _343  and  _344
REMARK  146  A    between atoms: _346  and  _348
REMARK  147  A    between atoms: _348  and  _349
REMARK  148  A    between atoms: _348  and  _351
REMARK  149  A    between atoms: _351  and  _352
REMARK  150  A    between atoms: _355  and  _357
REMARK  151  A    between atoms: _357  and  _358
REMARK  152  A    between atoms: _357  and  _360
REMARK  153  A    between atoms: _360  and  _361
REMARK  154  A    between atoms: _364  and  _366
REMARK  155  A    between atoms: _366  and  _367
REMARK  156  A    between atoms: _366  and  _369
REMARK  157  A    between atoms: _369  and  _370
REMARK  158  A    between atoms: _370  and  _371
REMARK  159  A    between atoms: _373  and  _375
REMARK  160  A    between atoms: _375  and  _376
REMARK  161  A    between atoms: _375  and  _378
REMARK  162  A    between atoms: _378  and  _379
REMARK  163  A    between atoms: _382  and  _384
REMARK  164  A    between atoms: _384  and  _385
REMARK  165  A    between atoms: _384  and  _387
REMARK  166  A    between atoms: _387  and  _388
REMARK  167  A    between atoms: _388  and  _389
REMARK  168  A    between atoms: _392  and  _394
REMARK  169  A    between atoms: _394  and  _395
REMARK  170  A    between atoms: _394  and  _397
REMARK  171  A    between atoms: _397  and  _398
REMARK  172  A    between atoms: _404  and  _406
REMARK  173  A    between atoms: _406  and  _407
REMARK  174  A    between atoms: _411  and  _412
REMARK  175  A    between atoms: _417  and  _419
REMARK  176  A    between atoms: _419  and  _420
REMARK  177  A    between atoms: _419  and  _422
REMARK  178  A    between atoms: _422  and  _423
REMARK  179  A    between atoms: _423  and  _424
REMARK  180  A    between atoms: _424  and  _425
REMARK  181  A    between atoms: _434  and  _436
REMARK  182  A    between atoms: _436  and  _437
REMARK  183  A    between atoms: _439  and  _441
REMARK  184  A    between atoms: _441  and  _442
REMARK  185  A    between atoms: _441  and  _444
REMARK  186  A    between atoms: _444  and  _445
REMARK  187  A    between atoms: _445  and  _446
REMARK  188  A    between atoms: _449  and  _451
REMARK  189  A    between atoms: _451  and  _452
REMARK  190  A    between atoms: _451  and  _454
REMARK  191  A    between atoms: _454  and  _455
REMARK  192  A    between atoms: _458  and  _460
REMARK  193  A    between atoms: _460  and  _461
REMARK  194  A    between atoms: _460  and  _463
REMARK  195  A    between atoms: _463  and  _464
REMARK  196  A    between atoms: _464  and  _465
REMARK  197  A    between atoms: _465  and  _466
REMARK  198  A    between atoms: _466  and  _467
REMARK  199  A    between atoms: _471  and  _473
REMARK  200  A    between atoms: _473  and  _474
REMARK  201  A    between atoms: _473  and  _476
REMARK  202  A    between atoms: _476  and  _477
REMARK  203  A    between atoms: _477  and  _478
REMARK  204  A    between atoms: _481  and  _483
REMARK  205  A    between atoms: _483  and  _484
REMARK  206  A    between atoms: _483  and  _486
REMARK  207  A    between atoms: _486  and  _487
REMARK  208  A    between atoms: _487  and  _488
REMARK  209  A    between atoms: _488  and  _489
REMARK  210  A    between atoms: _489  and  _490
REMARK  211  A    between atoms: _494  and  _496
REMARK  212  A    between atoms: _496  and  _497
REMARK  213  A    between atoms: _496  and  _499
REMARK  214  A    between atoms: _499  and  _500
REMARK  215  A    between atoms: _500  and  _501
REMARK  216  A    between atoms: _504  and  _506
REMARK  217  A    between atoms: _506  and  _507
REMARK  218  A    between atoms: _506  and  _509
REMARK  219  A    between atoms: _509  and  _510
REMARK  220  A    between atoms: _515  and  _517
REMARK  221  A    between atoms: _517  and  _518
REMARK  222  A    between atoms: _517  and  _520
REMARK  223  A    between atoms: _520  and  _521
REMARK  224  A    between atoms: _524  and  _526
REMARK  225  A    between atoms: _526  and  _527
REMARK  226  A    between atoms: _526  and  _529
REMARK  227  A    between atoms: _529  and  _530
REMARK  228  A    between atoms: _533  and  _535
REMARK  229  A    between atoms: _535  and  _536
REMARK  230  A    between atoms: _535  and  _538
REMARK  231  A    between atoms: _538  and  _539
REMARK  232  A    between atoms: _539  and  _540
REMARK  233  A    between atoms: _542  and  _544
REMARK  234  A    between atoms: _544  and  _545
REMARK  235  A    between atoms: _544  and  _547
REMARK  236  A    between atoms: _547  and  _548
REMARK  237  A    between atoms: _548  and  _549
REMARK  238  A    between atoms: _549  and  _550
REMARK  239  A    between atoms: _550  and  _551
REMARK  240  A    between atoms: _555  and  _557
REMARK  241  A    between atoms: _557  and  _558
REMARK  242  A    between atoms: _557  and  _560
REMARK  243  A    between atoms: _560  and  _561
REMARK  244  A    between atoms: _564  and  _566
REMARK  245  A    between atoms: _566  and  _567
REMARK  246  A    between atoms: _570  and  _572
REMARK  247  A    between atoms: _572  and  _573
REMARK  248  A    between atoms: _572  and  _575
REMARK  249  A    between atoms: _575  and  _576
REMARK  250  A    between atoms: _579  and  _581
REMARK  251  A    between atoms: _581  and  _582
REMARK  252  A    between atoms: _581  and  _584
REMARK  253  A    between atoms: _584  and  _585
REMARK  254  A    between atoms: _591  and  _593
REMARK  255  A    between atoms: _593  and  _594
REMARK  256  A    between atoms: _596  and  _598
REMARK  257  A    between atoms: _598  and  _599
REMARK  258  A    between atoms: _598  and  _601
REMARK  259  A    between atoms: _601  and  _602
REMARK                            x       y       z     vdW  Elec       q    Type
REMARK                         _______ _______ _______ _____ _____    ______ ____
ROOT
ATOM      1  O   HOH     1      13.678 -37.434   6.333  0.00  0.00    +0.000 OA
ENDROOT
TORSDOF 0
REMARK  Name = ../refined-set-2016/4c2v/4c2v_pocket.pdb
REMARK  259 active torsions:
REMARK  status: ('A' for Active; 'I' for Inactive)
REMARK    1  A    between atoms: _1  and  _3
REMARK    2  A    between atoms: _3  and  _4
REMARK    3  A    between atoms: _3  and  _6
REMARK    4  A    between atoms: _6  and  _7
REMARK    5  A    between atoms: _7  and  _8
REMARK    6  A    between atoms: _8  and  _9
REMARK    7  A    between atoms: _19  and  _20
REMARK    8  A    between atoms: _25  and  _27
REMARK    9  A    between atoms: _27  and  _28
REMARK   10  A    between atoms: _27  and  _30
REMARK   11  A    between atoms: _30  and  _31
REMARK   12  A    between atoms: _34  and  _36
REMARK   13  A    between atoms: _36  and  _37
REMARK   14  A    between atoms: _39  and  _41
REMARK   15  A    between atoms: _41  and  _42
REMARK   16  A    between atoms: _41  and  _44
REMARK   17  A    between atoms: _44  and  _45
REMARK   18  A    between atoms: _45  and  _46
REMARK   19  A    between atoms: _46  and  _47
REMARK   20  A    between atoms: _47  and  _48
REMARK   21  A    between atoms: _52  and  _54
REMARK   22  A    between atoms: _54  and  _55
REMARK   23  A    between atoms: _57  and  _59
REMARK   24  A    between atoms: _59  and  _60
REMARK   25  A    between atoms: _59  and  _62
REMARK   26  A    between atoms: _62  and  _63
REMARK   27  A    between atoms: _63  and  _64
REMARK   28  A    between atoms: _64  and  _65
REMARK   29  A    between atoms: _65  and  _66
REMARK   30  A    between atoms: _70  and  _72
REMARK   31  A    between atoms: _72  and  _73
REMARK   32  A    between atoms: _72  and  _75
REMARK   33  A    between atoms: _75  and  _76
REMARK   34  A    between atoms: _82  and  _84
REMARK   35  A    between atoms: _84  and  _85
REMARK   36  A    between atoms: _87  and  _89
REMARK   37  A    between atoms: _89  and  _90
REMARK   38  A    between atoms: _89  and  _92
REMARK   39  A    between atoms: _92  and  _93
REMARK   40  A    between atoms: _98  and  _100
REMARK   41  A    between atoms: _100  and  _101
REMARK   42  A    between atoms: _100  and  _103
REMARK   43  A    between atoms: _106  and  _108
REMARK   44  A    between atoms: _108  and  _109
REMARK   45  A    between atoms: _108  and  _111
REMARK   46  A    between atoms: _111  and  _112
REMARK   47  A    between atoms: _117  and  _118
REMARK   48  A    between atoms: _120  and  _122
REMARK   49  A    between atoms: _122  and  _123
REMARK   50  A    between atoms: _122  and  _125
REMARK   51  A    between atoms: _125  and  _126
REMARK   52  A    between atoms: _129  and  _131
REMARK   53  A    between atoms: _131  and  _132
REMARK   54  A    between atoms: _135  and  _137
REMARK   55  A    between atoms: _137  and  _138
REMARK   56  A    between atoms: _137  and  _140
REMARK   57  A    between atoms: _140  and  _141
REMARK   58  A    between atoms: _141  and  _142
REMARK   59  A    between atoms: _144  and  _146
REMARK   60  A    between atoms: _146  and  _147
REMARK   61  A    between atoms: _150  and  _152
REMARK   62  A    between atoms: _152  and  _153
REMARK   63  A    between atoms: _152  and  _155
REMARK   64  A    between atoms: _155  and  _156
REMARK   65  A    between atoms: _159  and  _161
REMARK   66  A    between atoms: _161  and  _162
REMARK   67  A    between atoms: _161  and  _164
REMARK   68  A    between atoms: _164  and  _165
REMARK   69  A    between atoms: _165  and  _166
REMARK   70  A    between atoms: _166  and  _167
REMARK   71  A    between atoms: _167  and  _168
REMARK   72  A    between atoms: _172  and  _174
REMARK   73  A    between atoms: _174  and  _175
REMARK   74  A    between atoms: _174  and  _177
REMARK   75  A    between atoms: _180  and  _182
REMARK   76  A    between atoms: _182  and  _183
REMARK   77  A    between atoms: _182  and  _185
REMARK   78  A    between atoms: _185  and  _186
REMARK   79  A    between atoms: _189  and  _191
REMARK   80  A    between atoms: _191  and  _192
REMARK   81  A    between atoms: _191  and  _194
REMARK   82  A    between atoms: _194  and  _195
REMARK   83  A    between atoms: _198  and  _200
REMARK   84  A    between atoms: _200  and  _201
REMARK   85  A    between atoms: _200  and  _203
REMARK   86  A    between atoms: _203  and  _204
REMARK   87  A    between atoms: _204  and  _205
REMARK   88  A    between atoms: _210  and  _212
REMARK   89  A    between atoms: _212  and  _213
REMARK   90  A    between atoms: _212  and  _215
REMARK   91  A    between atoms: _215  and  _216
REMARK   92  A    between atoms: _219  and  _221
REMARK   93  A    between atoms: _221  and  _222
REMARK   94  A    between atoms: _221  and  _224
REMARK   95  A    between atoms: _224  and  _225
REMARK   96  A    between atoms: _225  and  _226
REMARK   97  A    between atoms: _226  and  _227
REMARK   98  A    between atoms: _236  and  _238
REMARK   99  A    between atoms: _238  and  _239
REMARK  100  A    between atoms: _238  and  _241
REMARK  101  A    between atoms: _241  and  _242
REMARK  102  A    between atoms: _242  and  _243
REMARK  103  A    between atoms: _243  and  _244
REMARK  104  A    between atoms: _253  and  _255
REMARK  105  A    between atoms: _255  and  _256
REMARK  106  A    between atoms: _255  and  _258
REMARK  107  A    between atoms: _258  and  _259
REMARK  108  A    between atoms: _259  and  _260
REMARK  109  A    between atoms: _263  and  _265
REMARK  110  A    between atoms: _265  and  _266
REMARK  111  A    between atoms: _265  and  _268
REMARK  112  A    between atoms: _268  and  _269
REMARK  113  A    between atoms: _272  and  _274
REMARK  114  A    between atoms: _274  and  _275
REMARK  115  A    between atoms: _274  and  _277
REMARK  116  A    between atoms: _277  and  _278
REMARK  117  A    between atoms: _278  and  _279
REMARK  118  A    between atoms: _282  and  _284
REMARK  119  A    between atoms: _284  and  _285
REMARK  120  A    between atoms: _284  and  _287
REMARK  121  A    between atoms: _287  and  _288
REMARK  122  A    between atoms: _291  and  _293
REMARK  123  A    between atoms: _293  and  _294
REMARK  124  A    between atoms: _293  and  _296
REMARK  125  A    between atoms: _296  and  _297
REMARK  126  A    between atoms: _297  and  _298
REMARK  127  A    between atoms: _303  and  _305
REMARK  128  A    between atoms: _305  and  _306
REMARK  129  A    between atoms: _305  and  _308
REMARK  130  A    between atoms: _308  and  _309
REMARK  131  A    between atoms: _311  and  _313
REMARK  132  A    between atoms: _313  and  _314
REMARK  133  A    between atoms: _313  and  _316
REMARK  134  A    between atoms: _316  and  _317
REMARK  135  A    between atoms: _320  and  _322
REMARK  136  A    between atoms: _322  and  _323
REMARK  137  A    between atoms: _322  and  _325
REMARK  138  A    between atoms: _325  and  _326
REMARK  139  A    between atoms: _326  and  _327
REMARK  140  A    between atoms: _327  and  _328
REMARK  141  A    between atoms: _337  and  _339
REMARK  142  A    between atoms: _339  and  _340
REMARK  143  A    between atoms: _339  and  _342
REMARK  144  A    between atoms: _342  and  _343
REMARK  145  A    between atoms: _343  and  _344
REMARK  146  A    between atoms: _346  and  _348
REMARK  147  A    between atoms: _348  and  _349
REMARK  148  A    between atoms: _348  and  _351
REMARK  149  A    between atoms: _351  and  _352
REMARK  150  A    between atoms: _355  and  _357
REMARK  151  A    between atoms: _357  and  _358
REMARK  152  A    between atoms: _357  and  _360
REMARK  153  A    between atoms: _360  and  _361
REMARK  154  A    between atoms: _364  and  _366
REMARK  155  A    between atoms: _366  and  _367
REMARK  156  A    between atoms: _366  and  _369
REMARK  157  A    between atoms: _369  and  _370
REMARK  158  A    between atoms: _370  and  _371
REMARK  159  A    between atoms: _373  and  _375
REMARK  160  A    between atoms: _375  and  _376
REMARK  161  A    between atoms: _375  and  _378
REMARK  162  A    between atoms: _378  and  _379
REMARK  163  A    between atoms: _382  and  _384
REMARK  164  A    between atoms: _384  and  _385
REMARK  165  A    between atoms: _384  and  _387
REMARK  166  A    between atoms: _387  and  _388
REMARK  167  A    between atoms: _388  and  _389
REMARK  168  A    between atoms: _392  and  _394
REMARK  169  A    between atoms: _394  and  _395
REMARK  170  A    between atoms: _394  and  _397
REMARK  171  A    between atoms: _397  and  _398
REMARK  172  A    between atoms: _404  and  _406
REMARK  173  A    between atoms: _406  and  _407
REMARK  174  A    between atoms: _411  and  _412
REMARK  175  A    between atoms: _417  and  _419
REMARK  176  A    between atoms: _419  and  _420
REMARK  177  A    between atoms: _419  and  _422
REMARK  178  A    between atoms: _422  and  _423
REMARK  179  A    between atoms: _423  and  _424
REMARK  180  A    between atoms: _424  and  _425
REMARK  181  A    between atoms: _434  and  _436
REMARK  182  A    between atoms: _436  and  _437
REMARK  183  A    between atoms: _439  and  _441
REMARK  184  A    between atoms: _441  and  _442
REMARK  185  A    between atoms: _441  and  _444
REMARK  186  A    between atoms: _444  and  _445
REMARK  187  A    between atoms: _445  and  _446
REMARK  188  A    between atoms: _449  and  _451
REMARK  189  A    between atoms: _451  and  _452
REMARK  190  A    between atoms: _451  and  _454
REMARK  191  A    between atoms: _454  and  _455
REMARK  192  A    between atoms: _458  and  _460
REMARK  193  A    between atoms: _460  and  _461
REMARK  194  A    between atoms: _460  and  _463
REMARK  195  A    between atoms: _463  and  _464
REMARK  196  A    between atoms: _464  and  _465
REMARK  197  A    between atoms: _465  and  _466
REMARK  198  A    between atoms: _466  and  _467
REMARK  199  A    between atoms: _471  and  _473
REMARK  200  A    between atoms: _473  and  _474
REMARK  201  A    between atoms: _473  and  _476
REMARK  202  A    between atoms: _476  and  _477
REMARK  203  A    between atoms: _477  and  _478
REMARK  204  A    between atoms: _481  and  _483
REMARK  205  A    between atoms: _483  and  _484
REMARK  206  A    between atoms: _483  and  _486
REMARK  207  A    between atoms: _486  and  _487
REMARK  208  A    between atoms: _487  and  _488
REMARK  209  A    between atoms: _488  and  _489
REMARK  210  A    between atoms: _489  and  _490
REMARK  211  A    between atoms: _494  and  _496
REMARK  212  A    between atoms: _496  and  _497
REMARK  213  A    between atoms: _496  and  _499
REMARK  214  A    between atoms: _499  and  _500
REMARK  215  A    between atoms: _500  and  _501
REMARK  216  A    between atoms: _504  and  _506
REMARK  217  A    between atoms: _506  and  _507
REMARK  218  A    between atoms: _506  and  _509
REMARK  219  A    between atoms: _509  and  _510
REMARK  220  A    between atoms: _515  and  _517
REMARK  221  A    between atoms: _517  and  _518
REMARK  222  A    between atoms: _517  and  _520
REMARK  223  A    between atoms: _520  and  _521
REMARK  224  A    between atoms: _524  and  _526
REMARK  225  A    between atoms: _526  and  _527
REMARK  226  A    between atoms: _526  and  _529
REMARK  227  A    between atoms: _529  and  _530
REMARK  228  A    between atoms: _533  and  _535
REMARK  229  A    between atoms: _535  and  _536
REMARK  230  A    between atoms: _535  and  _538
REMARK  231  A    between atoms: _538  and  _539
REMARK  232  A    between atoms: _539  and  _540
REMARK  233  A    between atoms: _542  and  _544
REMARK  234  A    between atoms: _544  and  _545
REMARK  235  A    between atoms: _544  and  _547
REMARK  236  A    between atoms: _547  and  _548
REMARK  237  A    between atoms: _548  and  _549
REMARK  238  A    between atoms: _549  and  _550
REMARK  239  A    between atoms: _550  and  _551
REMARK  240  A    between atoms: _555  and  _557
REMARK  241  A    between atoms: _557  and  _558
REMARK  242  A    between atoms: _557  and  _560
REMARK  243  A    between atoms: _560  and  _561
REMARK  244  A    between atoms: _564  and  _566
REMARK  245  A    between atoms: _566  and  _567
REMARK  246  A    between atoms: _570  and  _572
REMARK  247  A    between atoms: _572  and  _573
REMARK  248  A    between atoms: _572  and  _575
REMARK  249  A    between atoms: _575  and  _576
REMARK  250  A    between atoms: _579  and  _581
REMARK  251  A    between atoms: _581  and  _582
REMARK  252  A    between atoms: _581  and  _584
REMARK  253  A    between atoms: _584  and  _585
REMARK  254  A    between atoms: _591  and  _593
REMARK  255  A    between atoms: _593  and  _594
REMARK  256  A    between atoms: _596  and  _598
REMARK  257  A    between atoms: _598  and  _599
REMARK  258  A    between atoms: _598  and  _601
REMARK  259  A    between atoms: _601  and  _602
REMARK                            x       y       z     vdW  Elec       q    Type
REMARK                         _______ _______ _______ _____ _____    ______ ____
ROOT
ATOM      1  O   HOH     1      16.836 -39.820   7.520  0.00  0.00    +0.000 OA
ENDROOT
TORSDOF 0
REMARK  Name = ../refined-set-2016/4c2v/4c2v_pocket.pdb
REMARK  259 active torsions:
REMARK  status: ('A' for Active; 'I' for Inactive)
REMARK    1  A    between atoms: _1  and  _3
REMARK    2  A    between atoms: _3  and  _4
REMARK    3  A    between atoms: _3  and  _6
REMARK    4  A    between atoms: _6  and  _7
REMARK    5  A    between atoms: _7  and  _8
REMARK    6  A    between atoms: _8  and  _9
REMARK    7  A    between atoms: _19  and  _20
REMARK    8  A    between atoms: _25  and  _27
REMARK    9  A    between atoms: _27  and  _28
REMARK   10  A    between atoms: _27  and  _30
REMARK   11  A    between atoms: _30  and  _31
REMARK   12  A    between atoms: _34  and  _36
REMARK   13  A    between atoms: _36  and  _37
REMARK   14  A    between atoms: _39  and  _41
REMARK   15  A    between atoms: _41  and  _42
REMARK   16  A    between atoms: _41  and  _44
REMARK   17  A    between atoms: _44  and  _45
REMARK   18  A    between atoms: _45  and  _46
REMARK   19  A    between atoms: _46  and  _47
REMARK   20  A    between atoms: _47  and  _48
REMARK   21  A    between atoms: _52  and  _54
REMARK   22  A    between atoms: _54  and  _55
REMARK   23  A    between atoms: _57  and  _59
REMARK   24  A    between atoms: _59  and  _60
REMARK   25  A    between atoms: _59  and  _62
REMARK   26  A    between atoms: _62  and  _63
REMARK   27  A    between atoms: _63  and  _64
REMARK   28  A    between atoms: _64  and  _65
REMARK   29  A    between atoms: _65  and  _66
REMARK   30  A    between atoms: _70  and  _72
REMARK   31  A    between atoms: _72  and  _73
REMARK   32  A    between atoms: _72  and  _75
REMARK   33  A    between atoms: _75  and  _76
REMARK   34  A    between atoms: _82  and  _84
REMARK   35  A    between atoms: _84  and  _85
REMARK   36  A    between atoms: _87  and  _89
REMARK   37  A    between atoms: _89  and  _90
REMARK   38  A    between atoms: _89  and  _92
REMARK   39  A    between atoms: _92  and  _93
REMARK   40  A    between atoms: _98  and  _100
REMARK   41  A    between atoms: _100  and  _101
REMARK   42  A    between atoms: _100  and  _103
REMARK   43  A    between atoms: _106  and  _108
REMARK   44  A    between atoms: _108  and  _109
REMARK   45  A    between atoms: _108  and  _111
REMARK   46  A    between atoms: _111  and  _112
REMARK   47  A    between atoms: _117  and  _118
REMARK   48  A    between atoms: _120  and  _122
REMARK   49  A    between atoms: _122  and  _123
REMARK   50  A    between atoms: _122  and  _125
REMARK   51  A    between atoms: _125  and  _126
REMARK   52  A    between atoms: _129  and  _131
REMARK   53  A    between atoms: _131  and  _132
REMARK   54  A    between atoms: _135  and  _137
REMARK   55  A    between atoms: _137  and  _138
REMARK   56  A    between atoms: _137  and  _140
REMARK   57  A    between atoms: _140  and  _141
REMARK   58  A    between atoms: _141  and  _142
REMARK   59  A    between atoms: _144  and  _146
REMARK   60  A    between atoms: _146  and  _147
REMARK   61  A    between atoms: _150  and  _152
REMARK   62  A    between atoms: _152  and  _153
REMARK   63  A    between atoms: _152  and  _155
REMARK   64  A    between atoms: _155  and  _156
REMARK   65  A    between atoms: _159  and  _161
REMARK   66  A    between atoms: _161  and  _162
REMARK   67  A    between atoms: _161  and  _164
REMARK   68  A    between atoms: _164  and  _165
REMARK   69  A    between atoms: _165  and  _166
REMARK   70  A    between atoms: _166  and  _167
REMARK   71  A    between atoms: _167  and  _168
REMARK   72  A    between atoms: _172  and  _174
REMARK   73  A    between atoms: _174  and  _175
REMARK   74  A    between atoms: _174  and  _177
REMARK   75  A    between atoms: _180  and  _182
REMARK   76  A    between atoms: _182  and  _183
REMARK   77  A    between atoms: _182  and  _185
REMARK   78  A    between atoms: _185  and  _186
REMARK   79  A    between atoms: _189  and  _191
REMARK   80  A    between atoms: _191  and  _192
REMARK   81  A    between atoms: _191  and  _194
REMARK   82  A    between atoms: _194  and  _195
REMARK   83  A    between atoms: _198  and  _200
REMARK   84  A    between atoms: _200  and  _201
REMARK   85  A    between atoms: _200  and  _203
REMARK   86  A    between atoms: _203  and  _204
REMARK   87  A    between atoms: _204  and  _205
REMARK   88  A    between atoms: _210  and  _212
REMARK   89  A    between atoms: _212  and  _213
REMARK   90  A    between atoms: _212  and  _215
REMARK   91  A    between atoms: _215  and  _216
REMARK   92  A    between atoms: _219  and  _221
REMARK   93  A    between atoms: _221  and  _222
REMARK   94  A    between atoms: _221  and  _224
REMARK   95  A    between atoms: _224  and  _225
REMARK   96  A    between atoms: _225  and  _226
REMARK   97  A    between atoms: _226  and  _227
REMARK   98  A    between atoms: _236  and  _238
REMARK   99  A    between atoms: _238  and  _239
REMARK  100  A    between atoms: _238  and  _241
REMARK  101  A    between atoms: _241  and  _242
REMARK  102  A    between atoms: _242  and  _243
REMARK  103  A    between atoms: _243  and  _244
REMARK  104  A    between atoms: _253  and  _255
REMARK  105  A    between atoms: _255  and  _256
REMARK  106  A    between atoms: _255  and  _258
REMARK  107  A    between atoms: _258  and  _259
REMARK  108  A    between atoms: _259  and  _260
REMARK  109  A    between atoms: _263  and  _265
REMARK  110  A    between atoms: _265  and  _266
REMARK  111  A    between atoms: _265  and  _268
REMARK  112  A    between atoms: _268  and  _269
REMARK  113  A    between atoms: _272  and  _274
REMARK  114  A    between atoms: _274  and  _275
REMARK  115  A    between atoms: _274  and  _277
REMARK  116  A    between atoms: _277  and  _278
REMARK  117  A    between atoms: _278  and  _279
REMARK  118  A    between atoms: _282  and  _284
REMARK  119  A    between atoms: _284  and  _285
REMARK  120  A    between atoms: _284  and  _287
REMARK  121  A    between atoms: _287  and  _288
REMARK  122  A    between atoms: _291  and  _293
REMARK  123  A    between atoms: _293  and  _294
REMARK  124  A    between atoms: _293  and  _296
REMARK  125  A    between atoms: _296  and  _297
REMARK  126  A    between atoms: _297  and  _298
REMARK  127  A    between atoms: _303  and  _305
REMARK  128  A    between atoms: _305  and  _306
REMARK  129  A    between atoms: _305  and  _308
REMARK  130  A    between atoms: _308  and  _309
REMARK  131  A    between atoms: _311  and  _313
REMARK  132  A    between atoms: _313  and  _314
REMARK  133  A    between atoms: _313  and  _316
REMARK  134  A    between atoms: _316  and  _317
REMARK  135  A    between atoms: _320  and  _322
REMARK  136  A    between atoms: _322  and  _323
REMARK  137  A    between atoms: _322  and  _325
REMARK  138  A    between atoms: _325  and  _326
REMARK  139  A    between atoms: _326  and  _327
REMARK  140  A    between atoms: _327  and  _328
REMARK  141  A    between atoms: _337  and  _339
REMARK  142  A    between atoms: _339  and  _340
REMARK  143  A    between atoms: _339  and  _342
REMARK  144  A    between atoms: _342  and  _343
REMARK  145  A    between atoms: _343  and  _344
REMARK  146  A    between atoms: _346  and  _348
REMARK  147  A    between atoms: _348  and  _349
REMARK  148  A    between atoms: _348  and  _351
REMARK  149  A    between atoms: _351  and  _352
REMARK  150  A    between atoms: _355  and  _357
REMARK  151  A    between atoms: _357  and  _358
REMARK  152  A    between atoms: _357  and  _360
REMARK  153  A    between atoms: _360  and  _361
REMARK  154  A    between atoms: _364  and  _366
REMARK  155  A    between atoms: _366  and  _367
REMARK  156  A    between atoms: _366  and  _369
REMARK  157  A    between atoms: _369  and  _370
REMARK  158  A    between atoms: _370  and  _371
REMARK  159  A    between atoms: _373  and  _375
REMARK  160  A    between atoms: _375  and  _376
REMARK  161  A    between atoms: _375  and  _378
REMARK  162  A    between atoms: _378  and  _379
REMARK  163  A    between atoms: _382  and  _384
REMARK  164  A    between atoms: _384  and  _385
REMARK  165  A    between atoms: _384  and  _387
REMARK  166  A    between atoms: _387  and  _388
REMARK  167  A    between atoms: _388  and  _389
REMARK  168  A    between atoms: _392  and  _394
REMARK  169  A    between atoms: _394  and  _395
REMARK  170  A    between atoms: _394  and  _397
REMARK  171  A    between atoms: _397  and  _398
REMARK  172  A    between atoms: _404  and  _406
REMARK  173  A    between atoms: _406  and  _407
REMARK  174  A    between atoms: _411  and  _412
REMARK  175  A    between atoms: _417  and  _419
REMARK  176  A    between atoms: _419  and  _420
REMARK  177  A    between atoms: _419  and  _422
REMARK  178  A    between atoms: _422  and  _423
REMARK  179  A    between atoms: _423  and  _424
REMARK  180  A    between atoms: _424  and  _425
REMARK  181  A    between atoms: _434  and  _436
REMARK  182  A    between atoms: _436  and  _437
REMARK  183  A    between atoms: _439  and  _441
REMARK  184  A    between atoms: _441  and  _442
REMARK  185  A    between atoms: _441  and  _444
REMARK  186  A    between atoms: _444  and  _445
REMARK  187  A    between atoms: _445  and  _446
REMARK  188  A    between atoms: _449  and  _451
REMARK  189  A    between atoms: _451  and  _452
REMARK  190  A    between atoms: _451  and  _454
REMARK  191  A    between atoms: _454  and  _455
REMARK  192  A    between atoms: _458  and  _460
REMARK  193  A    between atoms: _460  and  _461
REMARK  194  A    between atoms: _460  and  _463
REMARK  195  A    between atoms: _463  and  _464
REMARK  196  A    between atoms: _464  and  _465
REMARK  197  A    between atoms: _465  and  _466
REMARK  198  A    between atoms: _466  and  _467
REMARK  199  A    between atoms: _471  and  _473
REMARK  200  A    between atoms: _473  and  _474
REMARK  201  A    between atoms: _473  and  _476
REMARK  202  A    between atoms: _476  and  _477
REMARK  203  A    between atoms: _477  and  _478
REMARK  204  A    between atoms: _481  and  _483
REMARK  205  A    between atoms: _483  and  _484
REMARK  206  A    between atoms: _483  and  _486
REMARK  207  A    between atoms: _486  and  _487
REMARK  208  A    between atoms: _487  and  _488
REMARK  209  A    between atoms: _488  and  _489
REMARK  210  A    between atoms: _489  and  _490
REMARK  211  A    between atoms: _494  and  _496
REMARK  212  A    between atoms: _496  and  _497
REMARK  213  A    between atoms: _496  and  _499
REMARK  214  A    between atoms: _499  and  _500
REMARK  215  A    between atoms: _500  and  _501
REMARK  216  A    between atoms: _504  and  _506
REMARK  217  A    between atoms: _506  and  _507
REMARK  218  A    between atoms: _506  and  _509
REMARK  219  A    between atoms: _509  and  _510
REMARK  220  A    between atoms: _515  and  _517
REMARK  221  A    between atoms: _517  and  _518
REMARK  222  A    between atoms: _517  and  _520
REMARK  223  A    between atoms: _520  and  _521
REMARK  224  A    between atoms: _524  and  _526
REMARK  225  A    between atoms: _526  and  _527
REMARK  226  A    between atoms: _526  and  _529
REMARK  227  A    between atoms: _529  and  _530
REMARK  228  A    between atoms: _533  and  _535
REMARK  229  A    between atoms: _535  and  _536
REMARK  230  A    between atoms: _535  and  _538
REMARK  231  A    between atoms: _538  and  _539
REMARK  232  A    between atoms: _539  and  _540
REMARK  233  A    between atoms: _542  and  _544
REMARK  234  A    between atoms: _544  and  _545
REMARK  235  A    between atoms: _544  and  _547
REMARK  236  A    between atoms: _547  and  _548
REMARK  237  A    between atoms: _548  and  _549
REMARK  238  A    between atoms: _549  and  _550
REMARK  239  A    between atoms: _550  and  _551
REMARK  240  A    between atoms: _555  and  _557
REMARK  241  A    between atoms: _557  and  _558
REMARK  242  A    between atoms: _557  and  _560
REMARK  243  A    between atoms: _560  and  _561
REMARK  244  A    between atoms: _564  and  _566
REMARK  245  A    between atoms: _566  and  _567
REMARK  246  A    between atoms: _570  and  _572
REMARK  247  A    between atoms: _572  and  _573
REMARK  248  A    between atoms: _572  and  _575
REMARK  249  A    between atoms: _575  and  _576
REMARK  250  A    between atoms: _579  and  _581
REMARK  251  A    between atoms: _581  and  _582
REMARK  252  A    between atoms: _581  and  _584
REMARK  253  A    between atoms: _584  and  _585
REMARK  254  A    between atoms: _591  and  _593
REMARK  255  A    between atoms: _593  and  _594
REMARK  256  A    between atoms: _596  and  _598
REMARK  257  A    between atoms: _598  and  _599
REMARK  258  A    between atoms: _598  and  _601
REMARK  259  A    between atoms: _601  and  _602
REMARK                            x       y       z     vdW  Elec       q    Type
REMARK                         _______ _______ _______ _____ _____    ______ ____
ROOT
ATOM      1  O   HOH     1      -3.874 -18.773  13.304  0.00  0.00    +0.000 OA
ENDROOT
TORSDOF 0
