REMARK  Name = ../refined-set-2016/2nmx/2nmx_pocket.pdb
REMARK  157 active torsions:
REMARK  status: ('A' for Active; 'I' for Inactive)
REMARK    1  A    between atoms: _1  and  _3
REMARK    2  A    between atoms: _3  and  _4
REMARK    3  A    between atoms: _3  and  _6
REMARK    4  A    between atoms: _6  and  _7
REMARK    5  A    between atoms: _17  and  _19
REMARK    6  A    between atoms: _19  and  _20
REMARK    7  A    between atoms: _19  and  _22
REMARK    8  A    between atoms: _22  and  _23
REMARK    9  A    between atoms: _28  and  _29
REMARK   10  A    between atoms: _31  and  _33
REMARK   11  A    between atoms: _33  and  _34
REMARK   12  A    between atoms: _33  and  _36
REMARK   13  A    between atoms: _36  and  _37
REMARK   14  A    between atoms: _40  and  _41
REMARK   15  A    between atoms: _46  and  _48
REMARK   16  A    between atoms: _48  and  _49
REMARK   17  A    between atoms: _48  and  _51
REMARK   18  A    between atoms: _54  and  _56
REMARK   19  A    between atoms: _56  and  _57
REMARK   20  A    between atoms: _56  and  _59
REMARK   21  A    between atoms: _59  and  _60
REMARK   22  A    between atoms: _65  and  _67
REMARK   23  A    between atoms: _67  and  _68
REMARK   24  A    between atoms: _67  and  _70
REMARK   25  A    between atoms: _70  and  _71
REMARK   26  A    between atoms: _73  and  _75
REMARK   27  A    between atoms: _75  and  _76
REMARK   28  A    between atoms: _75  and  _78
REMARK   29  A    between atoms: _78  and  _79
REMARK   30  A    between atoms: _84  and  _86
REMARK   31  A    between atoms: _86  and  _87
REMARK   32  A    between atoms: _86  and  _89
REMARK   33  A    between atoms: _89  and  _90
REMARK   34  A    between atoms: _95  and  _97
REMARK   35  A    between atoms: _97  and  _98
REMARK   36  A    between atoms: _97  and  _100
REMARK   37  A    between atoms: _100  and  _101
REMARK   38  A    between atoms: _107  and  _109
REMARK   39  A    between atoms: _109  and  _110
REMARK   40  A    between atoms: _109  and  _112
REMARK   41  A    between atoms: _112  and  _113
REMARK   42  A    between atoms: _119  and  _121
REMARK   43  A    between atoms: _121  and  _122
REMARK   44  A    between atoms: _121  and  _124
REMARK   45  A    between atoms: _124  and  _125
REMARK   46  A    between atoms: _125  and  _126
REMARK   47  A    between atoms: _131  and  _133
REMARK   48  A    between atoms: _133  and  _134
REMARK   49  A    between atoms: _133  and  _136
REMARK   50  A    between atoms: _136  and  _137
REMARK   51  A    between atoms: _143  and  _145
REMARK   52  A    between atoms: _156  and  _159
REMARK   53  A    between atoms: _159  and  _160
REMARK   54  A    between atoms: _168  and  _169
REMARK   55  A    between atoms: _177  and  _179
REMARK   56  A    between atoms: _179  and  _180
REMARK   57  A    between atoms: _179  and  _182
REMARK   58  A    between atoms: _182  and  _183
REMARK   59  A    between atoms: _183  and  _184
REMARK   60  A    between atoms: _187  and  _189
REMARK   61  A    between atoms: _189  and  _190
REMARK   62  A    between atoms: _189  and  _192
REMARK   63  A    between atoms: _192  and  _193
REMARK   64  A    between atoms: _198  and  _200
REMARK   65  A    between atoms: _200  and  _201
REMARK   66  A    between atoms: _200  and  _203
REMARK   67  A    between atoms: _203  and  _204
REMARK   68  A    between atoms: _204  and  _205
REMARK   69  A    between atoms: _208  and  _210
REMARK   70  A    between atoms: _210  and  _211
REMARK   71  A    between atoms: _210  and  _213
REMARK   72  A    between atoms: _213  and  _214
REMARK   73  A    between atoms: _217  and  _219
REMARK   74  A    between atoms: _219  and  _220
REMARK   75  A    between atoms: _219  and  _222
REMARK   76  A    between atoms: _222  and  _223
REMARK   77  A    between atoms: _224  and  ZN_444
REMARK   78  A    between atoms: _228  and  _230
REMARK   79  A    between atoms: _230  and  _231
REMARK   80  A    between atoms: _230  and  _233
REMARK   81  A    between atoms: _236  and  _238
REMARK   82  A    between atoms: _238  and  _239
REMARK   83  A    between atoms: _242  and  _244
REMARK   84  A    between atoms: _244  and  _245
REMARK   85  A    between atoms: _244  and  _247
REMARK   86  A    between atoms: _247  and  _248
REMARK   87  A    between atoms: _253  and  _255
REMARK   88  A    between atoms: _255  and  _256
REMARK   89  A    between atoms: _255  and  _258
REMARK   90  A    between atoms: _258  and  _259
REMARK   91  A    between atoms: _262  and  _264
REMARK   92  A    between atoms: _264  and  _265
REMARK   93  A    between atoms: _268  and  _270
REMARK   94  A    between atoms: _270  and  _271
REMARK   95  A    between atoms: _270  and  _273
REMARK   96  A    between atoms: _273  and  _274
REMARK   97  A    between atoms: _277  and  _279
REMARK   98  A    between atoms: _279  and  _280
REMARK   99  A    between atoms: _283  and  _285
REMARK  100  A    between atoms: _285  and  _286
REMARK  101  A    between atoms: _285  and  _288
REMARK  102  A    between atoms: _291  and  _293
REMARK  103  A    between atoms: _293  and  _294
REMARK  104  A    between atoms: _293  and  _296
REMARK  105  A    between atoms: _296  and  _297
REMARK  106  A    between atoms: _300  and  _302
REMARK  107  A    between atoms: _302  and  _303
REMARK  108  A    between atoms: _305  and  _307
REMARK  109  A    between atoms: _307  and  _308
REMARK  110  A    between atoms: _310  and  _312
REMARK  111  A    between atoms: _312  and  _313
REMARK  112  A    between atoms: _312  and  _315
REMARK  113  A    between atoms: _315  and  _316
REMARK  114  A    between atoms: _318  and  _320
REMARK  115  A    between atoms: _320  and  _321
REMARK  116  A    between atoms: _320  and  _323
REMARK  117  A    between atoms: _323  and  _324
REMARK  118  A    between atoms: _327  and  _329
REMARK  119  A    between atoms: _329  and  _330
REMARK  120  A    between atoms: _329  and  _332
REMARK  121  A    between atoms: _332  and  _333
REMARK  122  A    between atoms: _336  and  _338
REMARK  123  A    between atoms: _338  and  _339
REMARK  124  A    between atoms: _338  and  _341
REMARK  125  A    between atoms: _341  and  _342
REMARK  126  A    between atoms: _348  and  _349
REMARK  127  A    between atoms: _355  and  _356
REMARK  128  A    between atoms: _361  and  _363
REMARK  129  A    between atoms: _363  and  _364
REMARK  130  A    between atoms: _363  and  _366
REMARK  131  A    between atoms: _366  and  _367
REMARK  132  A    between atoms: _370  and  _372
REMARK  133  A    between atoms: _372  and  _373
REMARK  134  A    between atoms: _372  and  _375
REMARK  135  A    between atoms: _375  and  _376
REMARK  136  A    between atoms: _381  and  _382
REMARK  137  A    between atoms: _384  and  _386
REMARK  138  A    between atoms: _386  and  _387
REMARK  139  A    between atoms: _386  and  _389
REMARK  140  A    between atoms: _389  and  _390
REMARK  141  A    between atoms: _392  and  _394
REMARK  142  A    between atoms: _394  and  _395
REMARK  143  A    between atoms: _394  and  _397
REMARK  144  A    between atoms: _400  and  _402
REMARK  145  A    between atoms: _402  and  _403
REMARK  146  A    between atoms: _402  and  _405
REMARK  147  A    between atoms: _405  and  _406
REMARK  148  A    between atoms: _416  and  _418
REMARK  149  A    between atoms: _418  and  _419
REMARK  150  A    between atoms: _418  and  _421
REMARK  151  A    between atoms: _421  and  _422
REMARK  152  A    between atoms: _427  and  _429
REMARK  153  A    between atoms: _429  and  _430
REMARK  154  A    between atoms: _429  and  _432
REMARK  155  A    between atoms: _432  and  _433
REMARK  156  A    between atoms: _433  and  _434
REMARK  157  A    between atoms: _434  and  _435
REMARK                            x       y       z     vdW  Elec       q    Type
REMARK                         _______ _______ _______ _____ _____    ______ ____
ROOT
ATOM      1  CG  TRP A   1     -15.507  -8.401 -10.348  0.00  0.00    -0.002 A 
ATOM      2  CD1 TRP A   1     -16.432  -7.652  -9.683  0.00  0.00    +0.068 A 
ATOM      3  NE1 TRP A   1     -16.383  -6.346 -10.114  0.00  0.00    -0.352 N 
ATOM      4  HE1 TRP A   1     -16.985  -5.572  -9.767  0.00  0.00    +0.166 HD
ATOM      5  CE2 TRP A   1     -15.411  -6.231 -11.075  0.00  0.00    +0.056 A 
ATOM      6  CZ2 TRP A   1     -14.989  -5.114 -11.804  0.00  0.00    +0.017 A 
ATOM      7  CH2 TRP A   1     -13.977  -5.296 -12.713  0.00  0.00    +0.001 A 
ATOM      8  CZ3 TRP A   1     -13.384  -6.555 -12.910  0.00  0.00    +0.000 A 
ATOM      9  CE3 TRP A   1     -13.805  -7.668 -12.184  0.00  0.00    +0.001 A 
ATOM     10  CD2 TRP A   1     -14.837  -7.510 -11.248  0.00  0.00    +0.013 A 
ENDROOT
BRANCH   1  11
ATOM     11  CB  TRP A   1     -15.221  -9.856 -10.157  0.00  0.00    +0.053 C 
BRANCH  11  12
ATOM     12  CA  TRP A   1     -14.209 -10.146  -9.045  0.00  0.00    +0.137 C 
BRANCH  12  13
ATOM     13  N   TRP A   1     -14.778  -9.856  -7.733  0.00  0.00    -0.239 NA
ATOM     14  H   TRP A   1     -14.755  -8.883  -7.366  0.00  0.00    +0.142 HD
ENDBRANCH  12  13
BRANCH  12  15
ATOM     15  C   TRP A   1     -12.941  -9.346  -9.311  0.00  0.00    +0.224 C 
ATOM     16  O   TRP A   1     -12.720  -8.291  -8.716  0.00  0.00    -0.287 OA
ENDBRANCH  12  15
ENDBRANCH  11  12
ENDBRANCH   1  11
TORSDOF 4
REMARK  Name = ../refined-set-2016/2nmx/2nmx_pocket.pdb
REMARK  157 active torsions:
REMARK  status: ('A' for Active; 'I' for Inactive)
REMARK    1  A    between atoms: _1  and  _3
REMARK    2  A    between atoms: _3  and  _4
REMARK    3  A    between atoms: _3  and  _6
REMARK    4  A    between atoms: _6  and  _7
REMARK    5  A    between atoms: _17  and  _19
REMARK    6  A    between atoms: _19  and  _20
REMARK    7  A    between atoms: _19  and  _22
REMARK    8  A    between atoms: _22  and  _23
REMARK    9  A    between atoms: _28  and  _29
REMARK   10  A    between atoms: _31  and  _33
REMARK   11  A    between atoms: _33  and  _34
REMARK   12  A    between atoms: _33  and  _36
REMARK   13  A    between atoms: _36  and  _37
REMARK   14  A    between atoms: _40  and  _41
REMARK   15  A    between atoms: _46  and  _48
REMARK   16  A    between atoms: _48  and  _49
REMARK   17  A    between atoms: _48  and  _51
REMARK   18  A    between atoms: _54  and  _56
REMARK   19  A    between atoms: _56  and  _57
REMARK   20  A    between atoms: _56  and  _59
REMARK   21  A    between atoms: _59  and  _60
REMARK   22  A    between atoms: _65  and  _67
REMARK   23  A    between atoms: _67  and  _68
REMARK   24  A    between atoms: _67  and  _70
REMARK   25  A    between atoms: _70  and  _71
REMARK   26  A    between atoms: _73  and  _75
REMARK   27  A    between atoms: _75  and  _76
REMARK   28  A    between atoms: _75  and  _78
REMARK   29  A    between atoms: _78  and  _79
REMARK   30  A    between atoms: _84  and  _86
REMARK   31  A    between atoms: _86  and  _87
REMARK   32  A    between atoms: _86  and  _89
REMARK   33  A    between atoms: _89  and  _90
REMARK   34  A    between atoms: _95  and  _97
REMARK   35  A    between atoms: _97  and  _98
REMARK   36  A    between atoms: _97  and  _100
REMARK   37  A    between atoms: _100  and  _101
REMARK   38  A    between atoms: _107  and  _109
REMARK   39  A    between atoms: _109  and  _110
REMARK   40  A    between atoms: _109  and  _112
REMARK   41  A    between atoms: _112  and  _113
REMARK   42  A    between atoms: _119  and  _121
REMARK   43  A    between atoms: _121  and  _122
REMARK   44  A    between atoms: _121  and  _124
REMARK   45  A    between atoms: _124  and  _125
REMARK   46  A    between atoms: _125  and  _126
REMARK   47  A    between atoms: _131  and  _133
REMARK   48  A    between atoms: _133  and  _134
REMARK   49  A    between atoms: _133  and  _136
REMARK   50  A    between atoms: _136  and  _137
REMARK   51  A    between atoms: _143  and  _145
REMARK   52  A    between atoms: _156  and  _159
REMARK   53  A    between atoms: _159  and  _160
REMARK   54  A    between atoms: _168  and  _169
REMARK   55  A    between atoms: _177  and  _179
REMARK   56  A    between atoms: _179  and  _180
REMARK   57  A    between atoms: _179  and  _182
REMARK   58  A    between atoms: _182  and  _183
REMARK   59  A    between atoms: _183  and  _184
REMARK   60  A    between atoms: _187  and  _189
REMARK   61  A    between atoms: _189  and  _190
REMARK   62  A    between atoms: _189  and  _192
REMARK   63  A    between atoms: _192  and  _193
REMARK   64  A    between atoms: _198  and  _200
REMARK   65  A    between atoms: _200  and  _201
REMARK   66  A    between atoms: _200  and  _203
REMARK   67  A    between atoms: _203  and  _204
REMARK   68  A    between atoms: _204  and  _205
REMARK   69  A    between atoms: _208  and  _210
REMARK   70  A    between atoms: _210  and  _211
REMARK   71  A    between atoms: _210  and  _213
REMARK   72  A    between atoms: _213  and  _214
REMARK   73  A    between atoms: _217  and  _219
REMARK   74  A    between atoms: _219  and  _220
REMARK   75  A    between atoms: _219  and  _222
REMARK   76  A    between atoms: _222  and  _223
REMARK   77  A    between atoms: _224  and  ZN_444
REMARK   78  A    between atoms: _228  and  _230
REMARK   79  A    between atoms: _230  and  _231
REMARK   80  A    between atoms: _230  and  _233
REMARK   81  A    between atoms: _236  and  _238
REMARK   82  A    between atoms: _238  and  _239
REMARK   83  A    between atoms: _242  and  _244
REMARK   84  A    between atoms: _244  and  _245
REMARK   85  A    between atoms: _244  and  _247
REMARK   86  A    between atoms: _247  and  _248
REMARK   87  A    between atoms: _253  and  _255
REMARK   88  A    between atoms: _255  and  _256
REMARK   89  A    between atoms: _255  and  _258
REMARK   90  A    between atoms: _258  and  _259
REMARK   91  A    between atoms: _262  and  _264
REMARK   92  A    between atoms: _264  and  _265
REMARK   93  A    between atoms: _268  and  _270
REMARK   94  A    between atoms: _270  and  _271
REMARK   95  A    between atoms: _270  and  _273
REMARK   96  A    between atoms: _273  and  _274
REMARK   97  A    between atoms: _277  and  _279
REMARK   98  A    between atoms: _279  and  _280
REMARK   99  A    between atoms: _283  and  _285
REMARK  100  A    between atoms: _285  and  _286
REMARK  101  A    between atoms: _285  and  _288
REMARK  102  A    between atoms: _291  and  _293
REMARK  103  A    between atoms: _293  and  _294
REMARK  104  A    between atoms: _293  and  _296
REMARK  105  A    between atoms: _296  and  _297
REMARK  106  A    between atoms: _300  and  _302
REMARK  107  A    between atoms: _302  and  _303
REMARK  108  A    between atoms: _305  and  _307
REMARK  109  A    between atoms: _307  and  _308
REMARK  110  A    between atoms: _310  and  _312
REMARK  111  A    between atoms: _312  and  _313
REMARK  112  A    between atoms: _312  and  _315
REMARK  113  A    between atoms: _315  and  _316
REMARK  114  A    between atoms: _318  and  _320
REMARK  115  A    between atoms: _320  and  _321
REMARK  116  A    between atoms: _320  and  _323
REMARK  117  A    between atoms: _323  and  _324
REMARK  118  A    between atoms: _327  and  _329
REMARK  119  A    between atoms: _329  and  _330
REMARK  120  A    between atoms: _329  and  _332
REMARK  121  A    between atoms: _332  and  _333
REMARK  122  A    between atoms: _336  and  _338
REMARK  123  A    between atoms: _338  and  _339
REMARK  124  A    between atoms: _338  and  _341
REMARK  125  A    between atoms: _341  and  _342
REMARK  126  A    between atoms: _348  and  _349
REMARK  127  A    between atoms: _355  and  _356
REMARK  128  A    between atoms: _361  and  _363
REMARK  129  A    between atoms: _363  and  _364
REMARK  130  A    between atoms: _363  and  _366
REMARK  131  A    between atoms: _366  and  _367
REMARK  132  A    between atoms: _370  and  _372
REMARK  133  A    between atoms: _372  and  _373
REMARK  134  A    between atoms: _372  and  _375
REMARK  135  A    between atoms: _375  and  _376
REMARK  136  A    between atoms: _381  and  _382
REMARK  137  A    between atoms: _384  and  _386
REMARK  138  A    between atoms: _386  and  _387
REMARK  139  A    between atoms: _386  and  _389
REMARK  140  A    between atoms: _389  and  _390
REMARK  141  A    between atoms: _392  and  _394
REMARK  142  A    between atoms: _394  and  _395
REMARK  143  A    between atoms: _394  and  _397
REMARK  144  A    between atoms: _400  and  _402
REMARK  145  A    between atoms: _402  and  _403
REMARK  146  A    between atoms: _402  and  _405
REMARK  147  A    between atoms: _405  and  _406
REMARK  148  A    between atoms: _416  and  _418
REMARK  149  A    between atoms: _418  and  _419
REMARK  150  A    between atoms: _418  and  _421
REMARK  151  A    between atoms: _421  and  _422
REMARK  152  A    between atoms: _427  and  _429
REMARK  153  A    between atoms: _429  and  _430
REMARK  154  A    between atoms: _429  and  _432
REMARK  155  A    between atoms: _432  and  _433
REMARK  156  A    between atoms: _433  and  _434
REMARK  157  A    between atoms: _434  and  _435
REMARK                            x       y       z     vdW  Elec       q    Type
REMARK                         _______ _______ _______ _____ _____    ______ ____
ROOT
ATOM      1  CG  TYR A   1      -8.647  -8.260 -14.598  0.00  0.00    -0.020 A 
ATOM      2  CD2 TYR A   1      -9.048  -7.071 -13.987  0.00  0.00    -0.001 A 
ATOM      3  CE2 TYR A   1     -10.001  -6.243 -14.576  0.00  0.00    +0.036 A 
ATOM      4  CZ  TYR A   1     -10.562  -6.598 -15.795  0.00  0.00    +0.134 A 
ATOM      5  CE1 TYR A   1     -10.176  -7.771 -16.425  0.00  0.00    +0.036 A 
ATOM      6  CD1 TYR A   1      -9.224  -8.597 -15.823  0.00  0.00    -0.001 A 
ENDROOT
BRANCH   4   7
ATOM      7  OH  TYR A   1     -11.509  -5.784 -16.374  0.00  0.00    -0.506 OA
ATOM      8  HH  TYR A   1     -11.803  -6.180 -17.232  0.00  0.00    +0.292 HD
ENDBRANCH   4   7
BRANCH   1   9
ATOM      9  CB  TYR A   1      -7.656  -9.183 -13.926  0.00  0.00    +0.051 C 
BRANCH   9  10
ATOM     10  CA  TYR A   1      -8.334 -10.316 -13.151  0.00  0.00    +0.137 C 
BRANCH  10  11
ATOM     11  N   TYR A   1      -8.990  -9.779 -11.967  0.00  0.00    -0.239 NA
ATOM     12  H   TYR A   1      -8.411  -9.385 -11.198  0.00  0.00    +0.142 HD
ENDBRANCH  10  11
BRANCH  10  13
ATOM     13  C   TYR A   1      -7.323 -11.399 -12.791  0.00  0.00    +0.224 C 
ATOM     14  O   TYR A   1      -6.550 -11.845 -13.639  0.00  0.00    -0.287 OA
ENDBRANCH  10  13
ENDBRANCH   9  10
ENDBRANCH   1   9
TORSDOF 5
REMARK  Name = ../refined-set-2016/2nmx/2nmx_pocket.pdb
REMARK  157 active torsions:
REMARK  status: ('A' for Active; 'I' for Inactive)
REMARK    1  A    between atoms: _1  and  _3
REMARK    2  A    between atoms: _3  and  _4
REMARK    3  A    between atoms: _3  and  _6
REMARK    4  A    between atoms: _6  and  _7
REMARK    5  A    between atoms: _17  and  _19
REMARK    6  A    between atoms: _19  and  _20
REMARK    7  A    between atoms: _19  and  _22
REMARK    8  A    between atoms: _22  and  _23
REMARK    9  A    between atoms: _28  and  _29
REMARK   10  A    between atoms: _31  and  _33
REMARK   11  A    between atoms: _33  and  _34
REMARK   12  A    between atoms: _33  and  _36
REMARK   13  A    between atoms: _36  and  _37
REMARK   14  A    between atoms: _40  and  _41
REMARK   15  A    between atoms: _46  and  _48
REMARK   16  A    between atoms: _48  and  _49
REMARK   17  A    between atoms: _48  and  _51
REMARK   18  A    between atoms: _54  and  _56
REMARK   19  A    between atoms: _56  and  _57
REMARK   20  A    between atoms: _56  and  _59
REMARK   21  A    between atoms: _59  and  _60
REMARK   22  A    between atoms: _65  and  _67
REMARK   23  A    between atoms: _67  and  _68
REMARK   24  A    between atoms: _67  and  _70
REMARK   25  A    between atoms: _70  and  _71
REMARK   26  A    between atoms: _73  and  _75
REMARK   27  A    between atoms: _75  and  _76
REMARK   28  A    between atoms: _75  and  _78
REMARK   29  A    between atoms: _78  and  _79
REMARK   30  A    between atoms: _84  and  _86
REMARK   31  A    between atoms: _86  and  _87
REMARK   32  A    between atoms: _86  and  _89
REMARK   33  A    between atoms: _89  and  _90
REMARK   34  A    between atoms: _95  and  _97
REMARK   35  A    between atoms: _97  and  _98
REMARK   36  A    between atoms: _97  and  _100
REMARK   37  A    between atoms: _100  and  _101
REMARK   38  A    between atoms: _107  and  _109
REMARK   39  A    between atoms: _109  and  _110
REMARK   40  A    between atoms: _109  and  _112
REMARK   41  A    between atoms: _112  and  _113
REMARK   42  A    between atoms: _119  and  _121
REMARK   43  A    between atoms: _121  and  _122
REMARK   44  A    between atoms: _121  and  _124
REMARK   45  A    between atoms: _124  and  _125
REMARK   46  A    between atoms: _125  and  _126
REMARK   47  A    between atoms: _131  and  _133
REMARK   48  A    between atoms: _133  and  _134
REMARK   49  A    between atoms: _133  and  _136
REMARK   50  A    between atoms: _136  and  _137
REMARK   51  A    between atoms: _143  and  _145
REMARK   52  A    between atoms: _156  and  _159
REMARK   53  A    between atoms: _159  and  _160
REMARK   54  A    between atoms: _168  and  _169
REMARK   55  A    between atoms: _177  and  _179
REMARK   56  A    between atoms: _179  and  _180
REMARK   57  A    between atoms: _179  and  _182
REMARK   58  A    between atoms: _182  and  _183
REMARK   59  A    between atoms: _183  and  _184
REMARK   60  A    between atoms: _187  and  _189
REMARK   61  A    between atoms: _189  and  _190
REMARK   62  A    between atoms: _189  and  _192
REMARK   63  A    between atoms: _192  and  _193
REMARK   64  A    between atoms: _198  and  _200
REMARK   65  A    between atoms: _200  and  _201
REMARK   66  A    between atoms: _200  and  _203
REMARK   67  A    between atoms: _203  and  _204
REMARK   68  A    between atoms: _204  and  _205
REMARK   69  A    between atoms: _208  and  _210
REMARK   70  A    between atoms: _210  and  _211
REMARK   71  A    between atoms: _210  and  _213
REMARK   72  A    between atoms: _213  and  _214
REMARK   73  A    between atoms: _217  and  _219
REMARK   74  A    between atoms: _219  and  _220
REMARK   75  A    between atoms: _219  and  _222
REMARK   76  A    between atoms: _222  and  _223
REMARK   77  A    between atoms: _224  and  ZN_444
REMARK   78  A    between atoms: _228  and  _230
REMARK   79  A    between atoms: _230  and  _231
REMARK   80  A    between atoms: _230  and  _233
REMARK   81  A    between atoms: _236  and  _238
REMARK   82  A    between atoms: _238  and  _239
REMARK   83  A    between atoms: _242  and  _244
REMARK   84  A    between atoms: _244  and  _245
REMARK   85  A    between atoms: _244  and  _247
REMARK   86  A    between atoms: _247  and  _248
REMARK   87  A    between atoms: _253  and  _255
REMARK   88  A    between atoms: _255  and  _256
REMARK   89  A    between atoms: _255  and  _258
REMARK   90  A    between atoms: _258  and  _259
REMARK   91  A    between atoms: _262  and  _264
REMARK   92  A    between atoms: _264  and  _265
REMARK   93  A    between atoms: _268  and  _270
REMARK   94  A    between atoms: _270  and  _271
REMARK   95  A    between atoms: _270  and  _273
REMARK   96  A    between atoms: _273  and  _274
REMARK   97  A    between atoms: _277  and  _279
REMARK   98  A    between atoms: _279  and  _280
REMARK   99  A    between atoms: _283  and  _285
REMARK  100  A    between atoms: _285  and  _286
REMARK  101  A    between atoms: _285  and  _288
REMARK  102  A    between atoms: _291  and  _293
REMARK  103  A    between atoms: _293  and  _294
REMARK  104  A    between atoms: _293  and  _296
REMARK  105  A    between atoms: _296  and  _297
REMARK  106  A    between atoms: _300  and  _302
REMARK  107  A    between atoms: _302  and  _303
REMARK  108  A    between atoms: _305  and  _307
REMARK  109  A    between atoms: _307  and  _308
REMARK  110  A    between atoms: _310  and  _312
REMARK  111  A    between atoms: _312  and  _313
REMARK  112  A    between atoms: _312  and  _315
REMARK  113  A    between atoms: _315  and  _316
REMARK  114  A    between atoms: _318  and  _320
REMARK  115  A    between atoms: _320  and  _321
REMARK  116  A    between atoms: _320  and  _323
REMARK  117  A    between atoms: _323  and  _324
REMARK  118  A    between atoms: _327  and  _329
REMARK  119  A    between atoms: _329  and  _330
REMARK  120  A    between atoms: _329  and  _332
REMARK  121  A    between atoms: _332  and  _333
REMARK  122  A    between atoms: _336  and  _338
REMARK  123  A    between atoms: _338  and  _339
REMARK  124  A    between atoms: _338  and  _341
REMARK  125  A    between atoms: _341  and  _342
REMARK  126  A    between atoms: _348  and  _349
REMARK  127  A    between atoms: _355  and  _356
REMARK  128  A    between atoms: _361  and  _363
REMARK  129  A    between atoms: _363  and  _364
REMARK  130  A    between atoms: _363  and  _366
REMARK  131  A    between atoms: _366  and  _367
REMARK  132  A    between atoms: _370  and  _372
REMARK  133  A    between atoms: _372  and  _373
REMARK  134  A    between atoms: _372  and  _375
REMARK  135  A    between atoms: _375  and  _376
REMARK  136  A    between atoms: _381  and  _382
REMARK  137  A    between atoms: _384  and  _386
REMARK  138  A    between atoms: _386  and  _387
REMARK  139  A    between atoms: _386  and  _389
REMARK  140  A    between atoms: _389  and  _390
REMARK  141  A    between atoms: _392  and  _394
REMARK  142  A    between atoms: _394  and  _395
REMARK  143  A    between atoms: _394  and  _397
REMARK  144  A    between atoms: _400  and  _402
REMARK  145  A    between atoms: _402  and  _403
REMARK  146  A    between atoms: _402  and  _405
REMARK  147  A    between atoms: _405  and  _406
REMARK  148  A    between atoms: _416  and  _418
REMARK  149  A    between atoms: _418  and  _419
REMARK  150  A    between atoms: _418  and  _421
REMARK  151  A    between atoms: _421  and  _422
REMARK  152  A    between atoms: _427  and  _429
REMARK  153  A    between atoms: _429  and  _430
REMARK  154  A    between atoms: _429  and  _432
REMARK  155  A    between atoms: _432  and  _433
REMARK  156  A    between atoms: _433  and  _434
REMARK  157  A    between atoms: _434  and  _435
REMARK                            x       y       z     vdW  Elec       q    Type
REMARK                         _______ _______ _______ _____ _____    ______ ____
ROOT
ATOM      1  C   SER A   1     -16.489  -8.287 -24.412  0.00  0.00    +0.244 C 
ATOM      2  O   SER A   1     -16.614  -8.623 -23.234  0.00  0.00    -0.273 OA
ATOM      3  N   PRO A   2     -15.281  -8.132 -24.977  0.00  0.00    -0.273 N 
ATOM      4  CD  PRO A   2     -14.022  -8.256 -24.217  0.00  0.00    +0.094 C 
ATOM      5  CG  PRO A   2     -12.964  -8.149 -25.306  0.00  0.00    +0.024 C 
ATOM      6  CB  PRO A   2     -13.596  -7.191 -26.276  0.00  0.00    +0.030 C 
ATOM      7  CA  PRO A   2     -15.008  -7.739 -26.362  0.00  0.00    +0.140 C 
ENDROOT
BRANCH   7   8
ATOM      8  C   PRO A   2     -15.103  -8.921 -27.322  0.00  0.00    +0.227 C 
ATOM      9  O   PRO A   2     -15.393 -10.045 -26.913  0.00  0.00    -0.286 OA
ENDBRANCH   7   8
BRANCH   1  10
ATOM     10  CA  SER A   1     -17.720  -8.034 -25.285  0.00  0.00    +0.175 C 
BRANCH  10  11
ATOM     11  N   SER A   1     -18.861  -8.726 -24.695  0.00  0.00    -0.236 NA
ATOM     12  H   SER A   1     -19.087  -8.551 -23.695  0.00  0.00    +0.142 HD
ENDBRANCH  10  11
BRANCH  10  13
ATOM     13  CB  SER A   1     -18.002  -6.530 -25.364  0.00  0.00    +0.163 C 
BRANCH  13  14
ATOM     14  OG  SER A   1     -19.149  -6.272 -26.156  0.00  0.00    -0.380 OA
ATOM     15  H   SER A   1     -19.001  -6.617 -27.072  0.00  0.00    +0.211 HD
ENDBRANCH  13  14
ENDBRANCH  10  13
ENDBRANCH   1  10
TORSDOF 5
REMARK  Name = ../refined-set-2016/2nmx/2nmx_pocket.pdb
REMARK  157 active torsions:
REMARK  status: ('A' for Active; 'I' for Inactive)
REMARK    1  A    between atoms: _1  and  _3
REMARK    2  A    between atoms: _3  and  _4
REMARK    3  A    between atoms: _3  and  _6
REMARK    4  A    between atoms: _6  and  _7
REMARK    5  A    between atoms: _17  and  _19
REMARK    6  A    between atoms: _19  and  _20
REMARK    7  A    between atoms: _19  and  _22
REMARK    8  A    between atoms: _22  and  _23
REMARK    9  A    between atoms: _28  and  _29
REMARK   10  A    between atoms: _31  and  _33
REMARK   11  A    between atoms: _33  and  _34
REMARK   12  A    between atoms: _33  and  _36
REMARK   13  A    between atoms: _36  and  _37
REMARK   14  A    between atoms: _40  and  _41
REMARK   15  A    between atoms: _46  and  _48
REMARK   16  A    between atoms: _48  and  _49
REMARK   17  A    between atoms: _48  and  _51
REMARK   18  A    between atoms: _54  and  _56
REMARK   19  A    between atoms: _56  and  _57
REMARK   20  A    between atoms: _56  and  _59
REMARK   21  A    between atoms: _59  and  _60
REMARK   22  A    between atoms: _65  and  _67
REMARK   23  A    between atoms: _67  and  _68
REMARK   24  A    between atoms: _67  and  _70
REMARK   25  A    between atoms: _70  and  _71
REMARK   26  A    between atoms: _73  and  _75
REMARK   27  A    between atoms: _75  and  _76
REMARK   28  A    between atoms: _75  and  _78
REMARK   29  A    between atoms: _78  and  _79
REMARK   30  A    between atoms: _84  and  _86
REMARK   31  A    between atoms: _86  and  _87
REMARK   32  A    between atoms: _86  and  _89
REMARK   33  A    between atoms: _89  and  _90
REMARK   34  A    between atoms: _95  and  _97
REMARK   35  A    between atoms: _97  and  _98
REMARK   36  A    between atoms: _97  and  _100
REMARK   37  A    between atoms: _100  and  _101
REMARK   38  A    between atoms: _107  and  _109
REMARK   39  A    between atoms: _109  and  _110
REMARK   40  A    between atoms: _109  and  _112
REMARK   41  A    between atoms: _112  and  _113
REMARK   42  A    between atoms: _119  and  _121
REMARK   43  A    between atoms: _121  and  _122
REMARK   44  A    between atoms: _121  and  _124
REMARK   45  A    between atoms: _124  and  _125
REMARK   46  A    between atoms: _125  and  _126
REMARK   47  A    between atoms: _131  and  _133
REMARK   48  A    between atoms: _133  and  _134
REMARK   49  A    between atoms: _133  and  _136
REMARK   50  A    between atoms: _136  and  _137
REMARK   51  A    between atoms: _143  and  _145
REMARK   52  A    between atoms: _156  and  _159
REMARK   53  A    between atoms: _159  and  _160
REMARK   54  A    between atoms: _168  and  _169
REMARK   55  A    between atoms: _177  and  _179
REMARK   56  A    between atoms: _179  and  _180
REMARK   57  A    between atoms: _179  and  _182
REMARK   58  A    between atoms: _182  and  _183
REMARK   59  A    between atoms: _183  and  _184
REMARK   60  A    between atoms: _187  and  _189
REMARK   61  A    between atoms: _189  and  _190
REMARK   62  A    between atoms: _189  and  _192
REMARK   63  A    between atoms: _192  and  _193
REMARK   64  A    between atoms: _198  and  _200
REMARK   65  A    between atoms: _200  and  _201
REMARK   66  A    between atoms: _200  and  _203
REMARK   67  A    between atoms: _203  and  _204
REMARK   68  A    between atoms: _204  and  _205
REMARK   69  A    between atoms: _208  and  _210
REMARK   70  A    between atoms: _210  and  _211
REMARK   71  A    between atoms: _210  and  _213
REMARK   72  A    between atoms: _213  and  _214
REMARK   73  A    between atoms: _217  and  _219
REMARK   74  A    between atoms: _219  and  _220
REMARK   75  A    between atoms: _219  and  _222
REMARK   76  A    between atoms: _222  and  _223
REMARK   77  A    between atoms: _224  and  ZN_444
REMARK   78  A    between atoms: _228  and  _230
REMARK   79  A    between atoms: _230  and  _231
REMARK   80  A    between atoms: _230  and  _233
REMARK   81  A    between atoms: _236  and  _238
REMARK   82  A    between atoms: _238  and  _239
REMARK   83  A    between atoms: _242  and  _244
REMARK   84  A    between atoms: _244  and  _245
REMARK   85  A    between atoms: _244  and  _247
REMARK   86  A    between atoms: _247  and  _248
REMARK   87  A    between atoms: _253  and  _255
REMARK   88  A    between atoms: _255  and  _256
REMARK   89  A    between atoms: _255  and  _258
REMARK   90  A    between atoms: _258  and  _259
REMARK   91  A    between atoms: _262  and  _264
REMARK   92  A    between atoms: _264  and  _265
REMARK   93  A    between atoms: _268  and  _270
REMARK   94  A    between atoms: _270  and  _271
REMARK   95  A    between atoms: _270  and  _273
REMARK   96  A    between atoms: _273  and  _274
REMARK   97  A    between atoms: _277  and  _279
REMARK   98  A    between atoms: _279  and  _280
REMARK   99  A    between atoms: _283  and  _285
REMARK  100  A    between atoms: _285  and  _286
REMARK  101  A    between atoms: _285  and  _288
REMARK  102  A    between atoms: _291  and  _293
REMARK  103  A    between atoms: _293  and  _294
REMARK  104  A    between atoms: _293  and  _296
REMARK  105  A    between atoms: _296  and  _297
REMARK  106  A    between atoms: _300  and  _302
REMARK  107  A    between atoms: _302  and  _303
REMARK  108  A    between atoms: _305  and  _307
REMARK  109  A    between atoms: _307  and  _308
REMARK  110  A    between atoms: _310  and  _312
REMARK  111  A    between atoms: _312  and  _313
REMARK  112  A    between atoms: _312  and  _315
REMARK  113  A    between atoms: _315  and  _316
REMARK  114  A    between atoms: _318  and  _320
REMARK  115  A    between atoms: _320  and  _321
REMARK  116  A    between atoms: _320  and  _323
REMARK  117  A    between atoms: _323  and  _324
REMARK  118  A    between atoms: _327  and  _329
REMARK  119  A    between atoms: _329  and  _330
REMARK  120  A    between atoms: _329  and  _332
REMARK  121  A    between atoms: _332  and  _333
REMARK  122  A    between atoms: _336  and  _338
REMARK  123  A    between atoms: _338  and  _339
REMARK  124  A    between atoms: _338  and  _341
REMARK  125  A    between atoms: _341  and  _342
REMARK  126  A    between atoms: _348  and  _349
REMARK  127  A    between atoms: _355  and  _356
REMARK  128  A    between atoms: _361  and  _363
REMARK  129  A    between atoms: _363  and  _364
REMARK  130  A    between atoms: _363  and  _366
REMARK  131  A    between atoms: _366  and  _367
REMARK  132  A    between atoms: _370  and  _372
REMARK  133  A    between atoms: _372  and  _373
REMARK  134  A    between atoms: _372  and  _375
REMARK  135  A    between atoms: _375  and  _376
REMARK  136  A    between atoms: _381  and  _382
REMARK  137  A    between atoms: _384  and  _386
REMARK  138  A    between atoms: _386  and  _387
REMARK  139  A    between atoms: _386  and  _389
REMARK  140  A    between atoms: _389  and  _390
REMARK  141  A    between atoms: _392  and  _394
REMARK  142  A    between atoms: _394  and  _395
REMARK  143  A    between atoms: _394  and  _397
REMARK  144  A    between atoms: _400  and  _402
REMARK  145  A    between atoms: _402  and  _403
REMARK  146  A    between atoms: _402  and  _405
REMARK  147  A    between atoms: _405  and  _406
REMARK  148  A    between atoms: _416  and  _418
REMARK  149  A    between atoms: _418  and  _419
REMARK  150  A    between atoms: _418  and  _421
REMARK  151  A    between atoms: _421  and  _422
REMARK  152  A    between atoms: _427  and  _429
REMARK  153  A    between atoms: _429  and  _430
REMARK  154  A    between atoms: _429  and  _432
REMARK  155  A    between atoms: _432  and  _433
REMARK  156  A    between atoms: _433  and  _434
REMARK  157  A    between atoms: _434  and  _435
REMARK                            x       y       z     vdW  Elec       q    Type
REMARK                         _______ _______ _______ _____ _____    ______ ____
ROOT
ATOM      1  CA  VAL A   1     -10.809   1.794  -8.732  0.00  0.00    +0.133 C 
ENDROOT
BRANCH   1   2
ATOM      2  CB  VAL A   1     -11.945   1.772  -9.774  0.00  0.00    +0.023 C 
ATOM      3  CG2 VAL A   1     -12.589   3.152  -9.863  0.00  0.00    +0.002 C 
ATOM      4  CG1 VAL A   1     -11.401   1.352 -11.123  0.00  0.00    +0.002 C 
ENDBRANCH   1   2
BRANCH   1   5
ATOM      5  N   VAL A   1      -9.756   2.718  -9.129  0.00  0.00    -0.239 NA
ATOM      6  H   VAL A   1      -9.411   2.718 -10.110  0.00  0.00    +0.142 HD
ENDBRANCH   1   5
BRANCH   1   7
ATOM      7  C   VAL A   1     -10.328   0.367  -8.473  0.00  0.00    +0.224 C 
ATOM      8  O   VAL A   1     -11.094  -0.587  -8.603  0.00  0.00    -0.287 OA
ENDBRANCH   1   7
TORSDOF 3
REMARK  Name = ../refined-set-2016/2nmx/2nmx_pocket.pdb
REMARK  157 active torsions:
REMARK  status: ('A' for Active; 'I' for Inactive)
REMARK    1  A    between atoms: _1  and  _3
REMARK    2  A    between atoms: _3  and  _4
REMARK    3  A    between atoms: _3  and  _6
REMARK    4  A    between atoms: _6  and  _7
REMARK    5  A    between atoms: _17  and  _19
REMARK    6  A    between atoms: _19  and  _20
REMARK    7  A    between atoms: _19  and  _22
REMARK    8  A    between atoms: _22  and  _23
REMARK    9  A    between atoms: _28  and  _29
REMARK   10  A    between atoms: _31  and  _33
REMARK   11  A    between atoms: _33  and  _34
REMARK   12  A    between atoms: _33  and  _36
REMARK   13  A    between atoms: _36  and  _37
REMARK   14  A    between atoms: _40  and  _41
REMARK   15  A    between atoms: _46  and  _48
REMARK   16  A    between atoms: _48  and  _49
REMARK   17  A    between atoms: _48  and  _51
REMARK   18  A    between atoms: _54  and  _56
REMARK   19  A    between atoms: _56  and  _57
REMARK   20  A    between atoms: _56  and  _59
REMARK   21  A    between atoms: _59  and  _60
REMARK   22  A    between atoms: _65  and  _67
REMARK   23  A    between atoms: _67  and  _68
REMARK   24  A    between atoms: _67  and  _70
REMARK   25  A    between atoms: _70  and  _71
REMARK   26  A    between atoms: _73  and  _75
REMARK   27  A    between atoms: _75  and  _76
REMARK   28  A    between atoms: _75  and  _78
REMARK   29  A    between atoms: _78  and  _79
REMARK   30  A    between atoms: _84  and  _86
REMARK   31  A    between atoms: _86  and  _87
REMARK   32  A    between atoms: _86  and  _89
REMARK   33  A    between atoms: _89  and  _90
REMARK   34  A    between atoms: _95  and  _97
REMARK   35  A    between atoms: _97  and  _98
REMARK   36  A    between atoms: _97  and  _100
REMARK   37  A    between atoms: _100  and  _101
REMARK   38  A    between atoms: _107  and  _109
REMARK   39  A    between atoms: _109  and  _110
REMARK   40  A    between atoms: _109  and  _112
REMARK   41  A    between atoms: _112  and  _113
REMARK   42  A    between atoms: _119  and  _121
REMARK   43  A    between atoms: _121  and  _122
REMARK   44  A    between atoms: _121  and  _124
REMARK   45  A    between atoms: _124  and  _125
REMARK   46  A    between atoms: _125  and  _126
REMARK   47  A    between atoms: _131  and  _133
REMARK   48  A    between atoms: _133  and  _134
REMARK   49  A    between atoms: _133  and  _136
REMARK   50  A    between atoms: _136  and  _137
REMARK   51  A    between atoms: _143  and  _145
REMARK   52  A    between atoms: _156  and  _159
REMARK   53  A    between atoms: _159  and  _160
REMARK   54  A    between atoms: _168  and  _169
REMARK   55  A    between atoms: _177  and  _179
REMARK   56  A    between atoms: _179  and  _180
REMARK   57  A    between atoms: _179  and  _182
REMARK   58  A    between atoms: _182  and  _183
REMARK   59  A    between atoms: _183  and  _184
REMARK   60  A    between atoms: _187  and  _189
REMARK   61  A    between atoms: _189  and  _190
REMARK   62  A    between atoms: _189  and  _192
REMARK   63  A    between atoms: _192  and  _193
REMARK   64  A    between atoms: _198  and  _200
REMARK   65  A    between atoms: _200  and  _201
REMARK   66  A    between atoms: _200  and  _203
REMARK   67  A    between atoms: _203  and  _204
REMARK   68  A    between atoms: _204  and  _205
REMARK   69  A    between atoms: _208  and  _210
REMARK   70  A    between atoms: _210  and  _211
REMARK   71  A    between atoms: _210  and  _213
REMARK   72  A    between atoms: _213  and  _214
REMARK   73  A    between atoms: _217  and  _219
REMARK   74  A    between atoms: _219  and  _220
REMARK   75  A    between atoms: _219  and  _222
REMARK   76  A    between atoms: _222  and  _223
REMARK   77  A    between atoms: _224  and  ZN_444
REMARK   78  A    between atoms: _228  and  _230
REMARK   79  A    between atoms: _230  and  _231
REMARK   80  A    between atoms: _230  and  _233
REMARK   81  A    between atoms: _236  and  _238
REMARK   82  A    between atoms: _238  and  _239
REMARK   83  A    between atoms: _242  and  _244
REMARK   84  A    between atoms: _244  and  _245
REMARK   85  A    between atoms: _244  and  _247
REMARK   86  A    between atoms: _247  and  _248
REMARK   87  A    between atoms: _253  and  _255
REMARK   88  A    between atoms: _255  and  _256
REMARK   89  A    between atoms: _255  and  _258
REMARK   90  A    between atoms: _258  and  _259
REMARK   91  A    between atoms: _262  and  _264
REMARK   92  A    between atoms: _264  and  _265
REMARK   93  A    between atoms: _268  and  _270
REMARK   94  A    between atoms: _270  and  _271
REMARK   95  A    between atoms: _270  and  _273
REMARK   96  A    between atoms: _273  and  _274
REMARK   97  A    between atoms: _277  and  _279
REMARK   98  A    between atoms: _279  and  _280
REMARK   99  A    between atoms: _283  and  _285
REMARK  100  A    between atoms: _285  and  _286
REMARK  101  A    between atoms: _285  and  _288
REMARK  102  A    between atoms: _291  and  _293
REMARK  103  A    between atoms: _293  and  _294
REMARK  104  A    between atoms: _293  and  _296
REMARK  105  A    between atoms: _296  and  _297
REMARK  106  A    between atoms: _300  and  _302
REMARK  107  A    between atoms: _302  and  _303
REMARK  108  A    between atoms: _305  and  _307
REMARK  109  A    between atoms: _307  and  _308
REMARK  110  A    between atoms: _310  and  _312
REMARK  111  A    between atoms: _312  and  _313
REMARK  112  A    between atoms: _312  and  _315
REMARK  113  A    between atoms: _315  and  _316
REMARK  114  A    between atoms: _318  and  _320
REMARK  115  A    between atoms: _320  and  _321
REMARK  116  A    between atoms: _320  and  _323
REMARK  117  A    between atoms: _323  and  _324
REMARK  118  A    between atoms: _327  and  _329
REMARK  119  A    between atoms: _329  and  _330
REMARK  120  A    between atoms: _329  and  _332
REMARK  121  A    between atoms: _332  and  _333
REMARK  122  A    between atoms: _336  and  _338
REMARK  123  A    between atoms: _338  and  _339
REMARK  124  A    between atoms: _338  and  _341
REMARK  125  A    between atoms: _341  and  _342
REMARK  126  A    between atoms: _348  and  _349
REMARK  127  A    between atoms: _355  and  _356
REMARK  128  A    between atoms: _361  and  _363
REMARK  129  A    between atoms: _363  and  _364
REMARK  130  A    between atoms: _363  and  _366
REMARK  131  A    between atoms: _366  and  _367
REMARK  132  A    between atoms: _370  and  _372
REMARK  133  A    between atoms: _372  and  _373
REMARK  134  A    between atoms: _372  and  _375
REMARK  135  A    between atoms: _375  and  _376
REMARK  136  A    between atoms: _381  and  _382
REMARK  137  A    between atoms: _384  and  _386
REMARK  138  A    between atoms: _386  and  _387
REMARK  139  A    between atoms: _386  and  _389
REMARK  140  A    between atoms: _389  and  _390
REMARK  141  A    between atoms: _392  and  _394
REMARK  142  A    between atoms: _394  and  _395
REMARK  143  A    between atoms: _394  and  _397
REMARK  144  A    between atoms: _400  and  _402
REMARK  145  A    between atoms: _402  and  _403
REMARK  146  A    between atoms: _402  and  _405
REMARK  147  A    between atoms: _405  and  _406
REMARK  148  A    between atoms: _416  and  _418
REMARK  149  A    between atoms: _418  and  _419
REMARK  150  A    between atoms: _418  and  _421
REMARK  151  A    between atoms: _421  and  _422
REMARK  152  A    between atoms: _427  and  _429
REMARK  153  A    between atoms: _429  and  _430
REMARK  154  A    between atoms: _429  and  _432
REMARK  155  A    between atoms: _432  and  _433
REMARK  156  A    between atoms: _433  and  _434
REMARK  157  A    between atoms: _434  and  _435
REMARK                            x       y       z     vdW  Elec       q    Type
REMARK                         _______ _______ _______ _____ _____    ______ ____
ROOT
ATOM      1  C   HIS A   1      -8.134  -2.046 -12.312  0.00  0.00    +0.239 C 
ATOM      2  N   SER A   2      -8.352  -0.747 -12.155  0.00  0.00    -0.296 N 
ATOM      3  H   SER A   2      -8.738  -0.404 -11.252  0.00  0.00    +0.150 HD
ATOM      4  O   HIS A   1      -7.665  -2.532 -13.343  0.00  0.00    -0.274 OA
ENDROOT
BRANCH   1   5
ATOM      5  CA  HIS A   1      -8.496  -2.925 -11.121  0.00  0.00    +0.151 C 
BRANCH   5   6
ATOM      6  N   HIS A   1      -8.853  -2.120  -9.958  0.00  0.00    -0.238 NA
ATOM      7  H   HIS A   1      -9.798  -1.688  -9.914  0.00  0.00    +0.142 HD
ENDBRANCH   5   6
BRANCH   5   8
ATOM      8  CB  HIS A   1      -9.667  -3.832 -11.488  0.00  0.00    +0.074 C 
BRANCH   8   9
ATOM      9  CG  HIS A   1     -10.922  -3.086 -11.813  0.00  0.00    +0.082 A 
ATOM     10  CD2 HIS A   1     -11.968  -2.724 -11.034  0.00  0.00    +0.115 A 
ATOM     11  NE2 HIS A   1     -12.836  -2.012 -11.826  0.00  0.00    -0.221 NA
ATOM     12  CE1 HIS A   1     -12.340  -1.941 -13.048  0.00  0.00    +0.199 A 
ATOM     13  ND1 HIS A   1     -11.186  -2.581 -13.068  0.00  0.00    -0.227 NA
ENDBRANCH   8   9
ENDBRANCH   5   8
ENDBRANCH   1   5
BRANCH   2  14
ATOM     14  CA  SER A   2      -8.066   0.209 -13.209  0.00  0.00    +0.166 C 
BRANCH  14  15
ATOM     15  CB  SER A   2      -8.233   1.604 -12.620  0.00  0.00    +0.229 C 
ATOM     16  OG  SER A   2      -8.294   1.767 -11.399  0.00  0.00    -0.286 OA
ENDBRANCH  14  15
BRANCH  14  17
ATOM     17  C   SER A   2      -9.052   0.000 -14.365  0.00  0.00    +0.165 C 
BRANCH  17  18
ATOM     18  O   SER A   2      -8.782   0.871 -15.450  0.00  0.00    -0.380 OA
ATOM     19  H   SER A   2      -9.437   0.707 -16.174  0.00  0.00    +0.211 HD
ENDBRANCH  17  18
ENDBRANCH  14  17
ENDBRANCH   2  14
TORSDOF 8
REMARK  Name = ../refined-set-2016/2nmx/2nmx_pocket.pdb
REMARK  157 active torsions:
REMARK  status: ('A' for Active; 'I' for Inactive)
REMARK    1  A    between atoms: _1  and  _3
REMARK    2  A    between atoms: _3  and  _4
REMARK    3  A    between atoms: _3  and  _6
REMARK    4  A    between atoms: _6  and  _7
REMARK    5  A    between atoms: _17  and  _19
REMARK    6  A    between atoms: _19  and  _20
REMARK    7  A    between atoms: _19  and  _22
REMARK    8  A    between atoms: _22  and  _23
REMARK    9  A    between atoms: _28  and  _29
REMARK   10  A    between atoms: _31  and  _33
REMARK   11  A    between atoms: _33  and  _34
REMARK   12  A    between atoms: _33  and  _36
REMARK   13  A    between atoms: _36  and  _37
REMARK   14  A    between atoms: _40  and  _41
REMARK   15  A    between atoms: _46  and  _48
REMARK   16  A    between atoms: _48  and  _49
REMARK   17  A    between atoms: _48  and  _51
REMARK   18  A    between atoms: _54  and  _56
REMARK   19  A    between atoms: _56  and  _57
REMARK   20  A    between atoms: _56  and  _59
REMARK   21  A    between atoms: _59  and  _60
REMARK   22  A    between atoms: _65  and  _67
REMARK   23  A    between atoms: _67  and  _68
REMARK   24  A    between atoms: _67  and  _70
REMARK   25  A    between atoms: _70  and  _71
REMARK   26  A    between atoms: _73  and  _75
REMARK   27  A    between atoms: _75  and  _76
REMARK   28  A    between atoms: _75  and  _78
REMARK   29  A    between atoms: _78  and  _79
REMARK   30  A    between atoms: _84  and  _86
REMARK   31  A    between atoms: _86  and  _87
REMARK   32  A    between atoms: _86  and  _89
REMARK   33  A    between atoms: _89  and  _90
REMARK   34  A    between atoms: _95  and  _97
REMARK   35  A    between atoms: _97  and  _98
REMARK   36  A    between atoms: _97  and  _100
REMARK   37  A    between atoms: _100  and  _101
REMARK   38  A    between atoms: _107  and  _109
REMARK   39  A    between atoms: _109  and  _110
REMARK   40  A    between atoms: _109  and  _112
REMARK   41  A    between atoms: _112  and  _113
REMARK   42  A    between atoms: _119  and  _121
REMARK   43  A    between atoms: _121  and  _122
REMARK   44  A    between atoms: _121  and  _124
REMARK   45  A    between atoms: _124  and  _125
REMARK   46  A    between atoms: _125  and  _126
REMARK   47  A    between atoms: _131  and  _133
REMARK   48  A    between atoms: _133  and  _134
REMARK   49  A    between atoms: _133  and  _136
REMARK   50  A    between atoms: _136  and  _137
REMARK   51  A    between atoms: _143  and  _145
REMARK   52  A    between atoms: _156  and  _159
REMARK   53  A    between atoms: _159  and  _160
REMARK   54  A    between atoms: _168  and  _169
REMARK   55  A    between atoms: _177  and  _179
REMARK   56  A    between atoms: _179  and  _180
REMARK   57  A    between atoms: _179  and  _182
REMARK   58  A    between atoms: _182  and  _183
REMARK   59  A    between atoms: _183  and  _184
REMARK   60  A    between atoms: _187  and  _189
REMARK   61  A    between atoms: _189  and  _190
REMARK   62  A    between atoms: _189  and  _192
REMARK   63  A    between atoms: _192  and  _193
REMARK   64  A    between atoms: _198  and  _200
REMARK   65  A    between atoms: _200  and  _201
REMARK   66  A    between atoms: _200  and  _203
REMARK   67  A    between atoms: _203  and  _204
REMARK   68  A    between atoms: _204  and  _205
REMARK   69  A    between atoms: _208  and  _210
REMARK   70  A    between atoms: _210  and  _211
REMARK   71  A    between atoms: _210  and  _213
REMARK   72  A    between atoms: _213  and  _214
REMARK   73  A    between atoms: _217  and  _219
REMARK   74  A    between atoms: _219  and  _220
REMARK   75  A    between atoms: _219  and  _222
REMARK   76  A    between atoms: _222  and  _223
REMARK   77  A    between atoms: _224  and  ZN_444
REMARK   78  A    between atoms: _228  and  _230
REMARK   79  A    between atoms: _230  and  _231
REMARK   80  A    between atoms: _230  and  _233
REMARK   81  A    between atoms: _236  and  _238
REMARK   82  A    between atoms: _238  and  _239
REMARK   83  A    between atoms: _242  and  _244
REMARK   84  A    between atoms: _244  and  _245
REMARK   85  A    between atoms: _244  and  _247
REMARK   86  A    between atoms: _247  and  _248
REMARK   87  A    between atoms: _253  and  _255
REMARK   88  A    between atoms: _255  and  _256
REMARK   89  A    between atoms: _255  and  _258
REMARK   90  A    between atoms: _258  and  _259
REMARK   91  A    between atoms: _262  and  _264
REMARK   92  A    between atoms: _264  and  _265
REMARK   93  A    between atoms: _268  and  _270
REMARK   94  A    between atoms: _270  and  _271
REMARK   95  A    between atoms: _270  and  _273
REMARK   96  A    between atoms: _273  and  _274
REMARK   97  A    between atoms: _277  and  _279
REMARK   98  A    between atoms: _279  and  _280
REMARK   99  A    between atoms: _283  and  _285
REMARK  100  A    between atoms: _285  and  _286
REMARK  101  A    between atoms: _285  and  _288
REMARK  102  A    between atoms: _291  and  _293
REMARK  103  A    between atoms: _293  and  _294
REMARK  104  A    between atoms: _293  and  _296
REMARK  105  A    between atoms: _296  and  _297
REMARK  106  A    between atoms: _300  and  _302
REMARK  107  A    between atoms: _302  and  _303
REMARK  108  A    between atoms: _305  and  _307
REMARK  109  A    between atoms: _307  and  _308
REMARK  110  A    between atoms: _310  and  _312
REMARK  111  A    between atoms: _312  and  _313
REMARK  112  A    between atoms: _312  and  _315
REMARK  113  A    between atoms: _315  and  _316
REMARK  114  A    between atoms: _318  and  _320
REMARK  115  A    between atoms: _320  and  _321
REMARK  116  A    between atoms: _320  and  _323
REMARK  117  A    between atoms: _323  and  _324
REMARK  118  A    between atoms: _327  and  _329
REMARK  119  A    between atoms: _329  and  _330
REMARK  120  A    between atoms: _329  and  _332
REMARK  121  A    between atoms: _332  and  _333
REMARK  122  A    between atoms: _336  and  _338
REMARK  123  A    between atoms: _338  and  _339
REMARK  124  A    between atoms: _338  and  _341
REMARK  125  A    between atoms: _341  and  _342
REMARK  126  A    between atoms: _348  and  _349
REMARK  127  A    between atoms: _355  and  _356
REMARK  128  A    between atoms: _361  and  _363
REMARK  129  A    between atoms: _363  and  _364
REMARK  130  A    between atoms: _363  and  _366
REMARK  131  A    between atoms: _366  and  _367
REMARK  132  A    between atoms: _370  and  _372
REMARK  133  A    between atoms: _372  and  _373
REMARK  134  A    between atoms: _372  and  _375
REMARK  135  A    between atoms: _375  and  _376
REMARK  136  A    between atoms: _381  and  _382
REMARK  137  A    between atoms: _384  and  _386
REMARK  138  A    between atoms: _386  and  _387
REMARK  139  A    between atoms: _386  and  _389
REMARK  140  A    between atoms: _389  and  _390
REMARK  141  A    between atoms: _392  and  _394
REMARK  142  A    between atoms: _394  and  _395
REMARK  143  A    between atoms: _394  and  _397
REMARK  144  A    between atoms: _400  and  _402
REMARK  145  A    between atoms: _402  and  _403
REMARK  146  A    between atoms: _402  and  _405
REMARK  147  A    between atoms: _405  and  _406
REMARK  148  A    between atoms: _416  and  _418
REMARK  149  A    between atoms: _418  and  _419
REMARK  150  A    between atoms: _418  and  _421
REMARK  151  A    between atoms: _421  and  _422
REMARK  152  A    between atoms: _427  and  _429
REMARK  153  A    between atoms: _429  and  _430
REMARK  154  A    between atoms: _429  and  _432
REMARK  155  A    between atoms: _432  and  _433
REMARK  156  A    between atoms: _433  and  _434
REMARK  157  A    between atoms: _434  and  _435
REMARK                            x       y       z     vdW  Elec       q    Type
REMARK                         _______ _______ _______ _____ _____    ______ ____
ROOT
ATOM      1  CB  HIS A   1     -12.777   5.702 -13.834  0.00  0.00    +0.072 C 
ENDROOT
BRANCH   1   2
ATOM      2  CG  HIS A   1     -13.108   4.253 -14.005  0.00  0.00    +0.082 A 
ATOM      3  ND1 HIS A   1     -14.206   3.670 -13.409  0.00  0.00    -0.227 NA
ATOM      4  CE1 HIS A   1     -14.269   2.397 -13.757  0.00  0.00    +0.199 A 
ATOM      5  NE2 HIS A   1     -13.253   2.133 -14.556  0.00  0.00    -0.221 NA
ATOM      6  CD2 HIS A   1     -12.509   3.276 -14.727  0.00  0.00    +0.115 A 
ENDBRANCH   1   2
BRANCH   1   7
ATOM      7  CA  HIS A   1     -11.373   6.091 -14.312  0.00  0.00    +0.139 C 
BRANCH   7   8
ATOM      8  N   HIS A   1     -10.364   5.439 -13.489  0.00  0.00    -0.239 NA
ATOM      9  H   HIS A   1     -10.348   5.623 -12.466  0.00  0.00    +0.142 HD
ENDBRANCH   7   8
BRANCH   7  10
ATOM     10  C   HIS A   1     -11.271   7.608 -14.273  0.00  0.00    +0.224 C 
ATOM     11  O   HIS A   1     -10.955   8.191 -13.238  0.00  0.00    -0.287 OA
ENDBRANCH   7  10
ENDBRANCH   1   7
TORSDOF 4
REMARK  Name = ../refined-set-2016/2nmx/2nmx_pocket.pdb
REMARK  157 active torsions:
REMARK  status: ('A' for Active; 'I' for Inactive)
REMARK    1  A    between atoms: _1  and  _3
REMARK    2  A    between atoms: _3  and  _4
REMARK    3  A    between atoms: _3  and  _6
REMARK    4  A    between atoms: _6  and  _7
REMARK    5  A    between atoms: _17  and  _19
REMARK    6  A    between atoms: _19  and  _20
REMARK    7  A    between atoms: _19  and  _22
REMARK    8  A    between atoms: _22  and  _23
REMARK    9  A    between atoms: _28  and  _29
REMARK   10  A    between atoms: _31  and  _33
REMARK   11  A    between atoms: _33  and  _34
REMARK   12  A    between atoms: _33  and  _36
REMARK   13  A    between atoms: _36  and  _37
REMARK   14  A    between atoms: _40  and  _41
REMARK   15  A    between atoms: _46  and  _48
REMARK   16  A    between atoms: _48  and  _49
REMARK   17  A    between atoms: _48  and  _51
REMARK   18  A    between atoms: _54  and  _56
REMARK   19  A    between atoms: _56  and  _57
REMARK   20  A    between atoms: _56  and  _59
REMARK   21  A    between atoms: _59  and  _60
REMARK   22  A    between atoms: _65  and  _67
REMARK   23  A    between atoms: _67  and  _68
REMARK   24  A    between atoms: _67  and  _70
REMARK   25  A    between atoms: _70  and  _71
REMARK   26  A    between atoms: _73  and  _75
REMARK   27  A    between atoms: _75  and  _76
REMARK   28  A    between atoms: _75  and  _78
REMARK   29  A    between atoms: _78  and  _79
REMARK   30  A    between atoms: _84  and  _86
REMARK   31  A    between atoms: _86  and  _87
REMARK   32  A    between atoms: _86  and  _89
REMARK   33  A    between atoms: _89  and  _90
REMARK   34  A    between atoms: _95  and  _97
REMARK   35  A    between atoms: _97  and  _98
REMARK   36  A    between atoms: _97  and  _100
REMARK   37  A    between atoms: _100  and  _101
REMARK   38  A    between atoms: _107  and  _109
REMARK   39  A    between atoms: _109  and  _110
REMARK   40  A    between atoms: _109  and  _112
REMARK   41  A    between atoms: _112  and  _113
REMARK   42  A    between atoms: _119  and  _121
REMARK   43  A    between atoms: _121  and  _122
REMARK   44  A    between atoms: _121  and  _124
REMARK   45  A    between atoms: _124  and  _125
REMARK   46  A    between atoms: _125  and  _126
REMARK   47  A    between atoms: _131  and  _133
REMARK   48  A    between atoms: _133  and  _134
REMARK   49  A    between atoms: _133  and  _136
REMARK   50  A    between atoms: _136  and  _137
REMARK   51  A    between atoms: _143  and  _145
REMARK   52  A    between atoms: _156  and  _159
REMARK   53  A    between atoms: _159  and  _160
REMARK   54  A    between atoms: _168  and  _169
REMARK   55  A    between atoms: _177  and  _179
REMARK   56  A    between atoms: _179  and  _180
REMARK   57  A    between atoms: _179  and  _182
REMARK   58  A    between atoms: _182  and  _183
REMARK   59  A    between atoms: _183  and  _184
REMARK   60  A    between atoms: _187  and  _189
REMARK   61  A    between atoms: _189  and  _190
REMARK   62  A    between atoms: _189  and  _192
REMARK   63  A    between atoms: _192  and  _193
REMARK   64  A    between atoms: _198  and  _200
REMARK   65  A    between atoms: _200  and  _201
REMARK   66  A    between atoms: _200  and  _203
REMARK   67  A    between atoms: _203  and  _204
REMARK   68  A    between atoms: _204  and  _205
REMARK   69  A    between atoms: _208  and  _210
REMARK   70  A    between atoms: _210  and  _211
REMARK   71  A    between atoms: _210  and  _213
REMARK   72  A    between atoms: _213  and  _214
REMARK   73  A    between atoms: _217  and  _219
REMARK   74  A    between atoms: _219  and  _220
REMARK   75  A    between atoms: _219  and  _222
REMARK   76  A    between atoms: _222  and  _223
REMARK   77  A    between atoms: _224  and  ZN_444
REMARK   78  A    between atoms: _228  and  _230
REMARK   79  A    between atoms: _230  and  _231
REMARK   80  A    between atoms: _230  and  _233
REMARK   81  A    between atoms: _236  and  _238
REMARK   82  A    between atoms: _238  and  _239
REMARK   83  A    between atoms: _242  and  _244
REMARK   84  A    between atoms: _244  and  _245
REMARK   85  A    between atoms: _244  and  _247
REMARK   86  A    between atoms: _247  and  _248
REMARK   87  A    between atoms: _253  and  _255
REMARK   88  A    between atoms: _255  and  _256
REMARK   89  A    between atoms: _255  and  _258
REMARK   90  A    between atoms: _258  and  _259
REMARK   91  A    between atoms: _262  and  _264
REMARK   92  A    between atoms: _264  and  _265
REMARK   93  A    between atoms: _268  and  _270
REMARK   94  A    between atoms: _270  and  _271
REMARK   95  A    between atoms: _270  and  _273
REMARK   96  A    between atoms: _273  and  _274
REMARK   97  A    between atoms: _277  and  _279
REMARK   98  A    between atoms: _279  and  _280
REMARK   99  A    between atoms: _283  and  _285
REMARK  100  A    between atoms: _285  and  _286
REMARK  101  A    between atoms: _285  and  _288
REMARK  102  A    between atoms: _291  and  _293
REMARK  103  A    between atoms: _293  and  _294
REMARK  104  A    between atoms: _293  and  _296
REMARK  105  A    between atoms: _296  and  _297
REMARK  106  A    between atoms: _300  and  _302
REMARK  107  A    between atoms: _302  and  _303
REMARK  108  A    between atoms: _305  and  _307
REMARK  109  A    between atoms: _307  and  _308
REMARK  110  A    between atoms: _310  and  _312
REMARK  111  A    between atoms: _312  and  _313
REMARK  112  A    between atoms: _312  and  _315
REMARK  113  A    between atoms: _315  and  _316
REMARK  114  A    between atoms: _318  and  _320
REMARK  115  A    between atoms: _320  and  _321
REMARK  116  A    between atoms: _320  and  _323
REMARK  117  A    between atoms: _323  and  _324
REMARK  118  A    between atoms: _327  and  _329
REMARK  119  A    between atoms: _329  and  _330
REMARK  120  A    between atoms: _329  and  _332
REMARK  121  A    between atoms: _332  and  _333
REMARK  122  A    between atoms: _336  and  _338
REMARK  123  A    between atoms: _338  and  _339
REMARK  124  A    between atoms: _338  and  _341
REMARK  125  A    between atoms: _341  and  _342
REMARK  126  A    between atoms: _348  and  _349
REMARK  127  A    between atoms: _355  and  _356
REMARK  128  A    between atoms: _361  and  _363
REMARK  129  A    between atoms: _363  and  _364
REMARK  130  A    between atoms: _363  and  _366
REMARK  131  A    between atoms: _366  and  _367
REMARK  132  A    between atoms: _370  and  _372
REMARK  133  A    between atoms: _372  and  _373
REMARK  134  A    between atoms: _372  and  _375
REMARK  135  A    between atoms: _375  and  _376
REMARK  136  A    between atoms: _381  and  _382
REMARK  137  A    between atoms: _384  and  _386
REMARK  138  A    between atoms: _386  and  _387
REMARK  139  A    between atoms: _386  and  _389
REMARK  140  A    between atoms: _389  and  _390
REMARK  141  A    between atoms: _392  and  _394
REMARK  142  A    between atoms: _394  and  _395
REMARK  143  A    between atoms: _394  and  _397
REMARK  144  A    between atoms: _400  and  _402
REMARK  145  A    between atoms: _402  and  _403
REMARK  146  A    between atoms: _402  and  _405
REMARK  147  A    between atoms: _405  and  _406
REMARK  148  A    between atoms: _416  and  _418
REMARK  149  A    between atoms: _418  and  _419
REMARK  150  A    between atoms: _418  and  _421
REMARK  151  A    between atoms: _421  and  _422
REMARK  152  A    between atoms: _427  and  _429
REMARK  153  A    between atoms: _429  and  _430
REMARK  154  A    between atoms: _429  and  _432
REMARK  155  A    between atoms: _432  and  _433
REMARK  156  A    between atoms: _433  and  _434
REMARK  157  A    between atoms: _434  and  _435
REMARK                            x       y       z     vdW  Elec       q    Type
REMARK                         _______ _______ _______ _____ _____    ______ ____
ROOT
ATOM      1  C   ASN A   1     -15.408  12.362 -15.301  0.00  0.00    +0.239 C 
ATOM      2  O   ASN A   1     -14.620  13.282 -15.088  0.00  0.00    -0.274 OA
ATOM      3  N   PHE A   2     -16.591  12.530 -15.885  0.00  0.00    -0.298 N 
ATOM      4  H   PHE A   2     -17.209  11.704 -16.014  0.00  0.00    +0.150 HD
ENDROOT
BRANCH   1   5
ATOM      5  CA  ASN A   1     -15.088  10.935 -14.890  0.00  0.00    +0.154 C 
BRANCH   5   6
ATOM      6  N   ASN A   1     -13.672  10.611 -14.762  0.00  0.00    -0.238 NA
ATOM      7  H   ASN A   1     -13.176  10.834 -13.876  0.00  0.00    +0.142 HD
ENDBRANCH   5   6
BRANCH   5   8
ATOM      8  CB  ASN A   1     -15.820  10.608 -13.587  0.00  0.00    +0.111 C 
BRANCH   8   9
ATOM      9  CG  ASN A   1     -15.788   9.128 -13.258  0.00  0.00    +0.221 C 
ATOM     10  ND2 ASN A   1     -15.625   8.810 -11.979  0.00  0.00    -0.329 N 
ATOM     11 HD21 ASN A   1     -15.515   9.560 -11.267  0.00  0.00    +0.145 HD
ATOM     12 HD22 ASN A   1     -15.608   7.811 -11.690  0.00  0.00    +0.145 HD
ATOM     13  OD1 ASN A   1     -15.923   8.281 -14.141  0.00  0.00    -0.275 OA
ENDBRANCH   8   9
ENDBRANCH   5   8
ENDBRANCH   1   5
BRANCH   3  14
ATOM     14  CA  PHE A   2     -17.049  13.831 -16.349  0.00  0.00    +0.141 C 
BRANCH  14  15
ATOM     15  C   PHE A   2     -18.424  14.178 -15.800  0.00  0.00    +0.227 C 
ATOM     16  O   PHE A   2     -19.228  13.295 -15.503  0.00  0.00    -0.286 OA
ENDBRANCH  14  15
BRANCH  14  17
ATOM     17  CB  PHE A   2     -17.116  13.854 -17.879  0.00  0.00    +0.054 C 
BRANCH  17  18
ATOM     18  CG  PHE A   2     -15.783  13.723 -18.547  0.00  0.00    -0.020 A 
ATOM     19  CD2 PHE A   2     -15.090  12.516 -18.524  0.00  0.00    -0.004 A 
ATOM     20  CE2 PHE A   2     -13.845  12.400 -19.128  0.00  0.00    -0.000 A 
ATOM     21  CZ  PHE A   2     -13.277  13.499 -19.763  0.00  0.00    -0.000 A 
ATOM     22  CE1 PHE A   2     -13.960  14.712 -19.793  0.00  0.00    -0.000 A 
ATOM     23  CD1 PHE A   2     -15.207  14.817 -19.186  0.00  0.00    -0.004 A 
ENDBRANCH  17  18
ENDBRANCH  14  17
ENDBRANCH   3  14
TORSDOF 8
REMARK  Name = ../refined-set-2016/2nmx/2nmx_pocket.pdb
REMARK  157 active torsions:
REMARK  status: ('A' for Active; 'I' for Inactive)
REMARK    1  A    between atoms: _1  and  _3
REMARK    2  A    between atoms: _3  and  _4
REMARK    3  A    between atoms: _3  and  _6
REMARK    4  A    between atoms: _6  and  _7
REMARK    5  A    between atoms: _17  and  _19
REMARK    6  A    between atoms: _19  and  _20
REMARK    7  A    between atoms: _19  and  _22
REMARK    8  A    between atoms: _22  and  _23
REMARK    9  A    between atoms: _28  and  _29
REMARK   10  A    between atoms: _31  and  _33
REMARK   11  A    between atoms: _33  and  _34
REMARK   12  A    between atoms: _33  and  _36
REMARK   13  A    between atoms: _36  and  _37
REMARK   14  A    between atoms: _40  and  _41
REMARK   15  A    between atoms: _46  and  _48
REMARK   16  A    between atoms: _48  and  _49
REMARK   17  A    between atoms: _48  and  _51
REMARK   18  A    between atoms: _54  and  _56
REMARK   19  A    between atoms: _56  and  _57
REMARK   20  A    between atoms: _56  and  _59
REMARK   21  A    between atoms: _59  and  _60
REMARK   22  A    between atoms: _65  and  _67
REMARK   23  A    between atoms: _67  and  _68
REMARK   24  A    between atoms: _67  and  _70
REMARK   25  A    between atoms: _70  and  _71
REMARK   26  A    between atoms: _73  and  _75
REMARK   27  A    between atoms: _75  and  _76
REMARK   28  A    between atoms: _75  and  _78
REMARK   29  A    between atoms: _78  and  _79
REMARK   30  A    between atoms: _84  and  _86
REMARK   31  A    between atoms: _86  and  _87
REMARK   32  A    between atoms: _86  and  _89
REMARK   33  A    between atoms: _89  and  _90
REMARK   34  A    between atoms: _95  and  _97
REMARK   35  A    between atoms: _97  and  _98
REMARK   36  A    between atoms: _97  and  _100
REMARK   37  A    between atoms: _100  and  _101
REMARK   38  A    between atoms: _107  and  _109
REMARK   39  A    between atoms: _109  and  _110
REMARK   40  A    between atoms: _109  and  _112
REMARK   41  A    between atoms: _112  and  _113
REMARK   42  A    between atoms: _119  and  _121
REMARK   43  A    between atoms: _121  and  _122
REMARK   44  A    between atoms: _121  and  _124
REMARK   45  A    between atoms: _124  and  _125
REMARK   46  A    between atoms: _125  and  _126
REMARK   47  A    between atoms: _131  and  _133
REMARK   48  A    between atoms: _133  and  _134
REMARK   49  A    between atoms: _133  and  _136
REMARK   50  A    between atoms: _136  and  _137
REMARK   51  A    between atoms: _143  and  _145
REMARK   52  A    between atoms: _156  and  _159
REMARK   53  A    between atoms: _159  and  _160
REMARK   54  A    between atoms: _168  and  _169
REMARK   55  A    between atoms: _177  and  _179
REMARK   56  A    between atoms: _179  and  _180
REMARK   57  A    between atoms: _179  and  _182
REMARK   58  A    between atoms: _182  and  _183
REMARK   59  A    between atoms: _183  and  _184
REMARK   60  A    between atoms: _187  and  _189
REMARK   61  A    between atoms: _189  and  _190
REMARK   62  A    between atoms: _189  and  _192
REMARK   63  A    between atoms: _192  and  _193
REMARK   64  A    between atoms: _198  and  _200
REMARK   65  A    between atoms: _200  and  _201
REMARK   66  A    between atoms: _200  and  _203
REMARK   67  A    between atoms: _203  and  _204
REMARK   68  A    between atoms: _204  and  _205
REMARK   69  A    between atoms: _208  and  _210
REMARK   70  A    between atoms: _210  and  _211
REMARK   71  A    between atoms: _210  and  _213
REMARK   72  A    between atoms: _213  and  _214
REMARK   73  A    between atoms: _217  and  _219
REMARK   74  A    between atoms: _219  and  _220
REMARK   75  A    between atoms: _219  and  _222
REMARK   76  A    between atoms: _222  and  _223
REMARK   77  A    between atoms: _224  and  ZN_444
REMARK   78  A    between atoms: _228  and  _230
REMARK   79  A    between atoms: _230  and  _231
REMARK   80  A    between atoms: _230  and  _233
REMARK   81  A    between atoms: _236  and  _238
REMARK   82  A    between atoms: _238  and  _239
REMARK   83  A    between atoms: _242  and  _244
REMARK   84  A    between atoms: _244  and  _245
REMARK   85  A    between atoms: _244  and  _247
REMARK   86  A    between atoms: _247  and  _248
REMARK   87  A    between atoms: _253  and  _255
REMARK   88  A    between atoms: _255  and  _256
REMARK   89  A    between atoms: _255  and  _258
REMARK   90  A    between atoms: _258  and  _259
REMARK   91  A    between atoms: _262  and  _264
REMARK   92  A    between atoms: _264  and  _265
REMARK   93  A    between atoms: _268  and  _270
REMARK   94  A    between atoms: _270  and  _271
REMARK   95  A    between atoms: _270  and  _273
REMARK   96  A    between atoms: _273  and  _274
REMARK   97  A    between atoms: _277  and  _279
REMARK   98  A    between atoms: _279  and  _280
REMARK   99  A    between atoms: _283  and  _285
REMARK  100  A    between atoms: _285  and  _286
REMARK  101  A    between atoms: _285  and  _288
REMARK  102  A    between atoms: _291  and  _293
REMARK  103  A    between atoms: _293  and  _294
REMARK  104  A    between atoms: _293  and  _296
REMARK  105  A    between atoms: _296  and  _297
REMARK  106  A    between atoms: _300  and  _302
REMARK  107  A    between atoms: _302  and  _303
REMARK  108  A    between atoms: _305  and  _307
REMARK  109  A    between atoms: _307  and  _308
REMARK  110  A    between atoms: _310  and  _312
REMARK  111  A    between atoms: _312  and  _313
REMARK  112  A    between atoms: _312  and  _315
REMARK  113  A    between atoms: _315  and  _316
REMARK  114  A    between atoms: _318  and  _320
REMARK  115  A    between atoms: _320  and  _321
REMARK  116  A    between atoms: _320  and  _323
REMARK  117  A    between atoms: _323  and  _324
REMARK  118  A    between atoms: _327  and  _329
REMARK  119  A    between atoms: _329  and  _330
REMARK  120  A    between atoms: _329  and  _332
REMARK  121  A    between atoms: _332  and  _333
REMARK  122  A    between atoms: _336  and  _338
REMARK  123  A    between atoms: _338  and  _339
REMARK  124  A    between atoms: _338  and  _341
REMARK  125  A    between atoms: _341  and  _342
REMARK  126  A    between atoms: _348  and  _349
REMARK  127  A    between atoms: _355  and  _356
REMARK  128  A    between atoms: _361  and  _363
REMARK  129  A    between atoms: _363  and  _364
REMARK  130  A    between atoms: _363  and  _366
REMARK  131  A    between atoms: _366  and  _367
REMARK  132  A    between atoms: _370  and  _372
REMARK  133  A    between atoms: _372  and  _373
REMARK  134  A    between atoms: _372  and  _375
REMARK  135  A    between atoms: _375  and  _376
REMARK  136  A    between atoms: _381  and  _382
REMARK  137  A    between atoms: _384  and  _386
REMARK  138  A    between atoms: _386  and  _387
REMARK  139  A    between atoms: _386  and  _389
REMARK  140  A    between atoms: _389  and  _390
REMARK  141  A    between atoms: _392  and  _394
REMARK  142  A    between atoms: _394  and  _395
REMARK  143  A    between atoms: _394  and  _397
REMARK  144  A    between atoms: _400  and  _402
REMARK  145  A    between atoms: _402  and  _403
REMARK  146  A    between atoms: _402  and  _405
REMARK  147  A    between atoms: _405  and  _406
REMARK  148  A    between atoms: _416  and  _418
REMARK  149  A    between atoms: _418  and  _419
REMARK  150  A    between atoms: _418  and  _421
REMARK  151  A    between atoms: _421  and  _422
REMARK  152  A    between atoms: _427  and  _429
REMARK  153  A    between atoms: _429  and  _430
REMARK  154  A    between atoms: _429  and  _432
REMARK  155  A    between atoms: _432  and  _433
REMARK  156  A    between atoms: _433  and  _434
REMARK  157  A    between atoms: _434  and  _435
REMARK                            x       y       z     vdW  Elec       q    Type
REMARK                         _______ _______ _______ _____ _____    ______ ____
ROOT
ATOM      1  C   UNK A   4     -10.401   4.684 -19.129  0.00  0.00    +0.000 C 
ATOM      2  C   UNK A   4     -11.076   3.821 -18.059  0.00  0.00    +0.000 C 
ATOM      3  C   UNK A   4     -12.058   2.831 -18.611  0.00  0.00    +0.000 A 
ATOM      4  N   UNK A   4     -13.421   2.953 -18.438  0.00  0.00    +0.000 NA
ATOM      5  C   UNK A   4     -14.029   1.938 -19.023  0.00  0.00    +0.000 A 
ATOM      6  N   UNK A   4     -13.110   1.163 -19.571  0.00  0.00    +0.000 N 
ATOM      7 ZN   UNK A   4     -13.255  -0.517 -20.701  0.00  0.00    +0.000 Zn
ATOM      8  N   UNK A   6     -11.674  -1.827 -20.172  0.00  0.00    +0.000 N 
ATOM      9  C   UNK A   6     -11.341  -2.847 -19.402  0.00  0.00    +0.000 A 
ATOM     10  N   UNK A   6     -10.087  -3.170 -19.661  0.00  0.00    +0.000 NA
ATOM     11  C   UNK A   6      -9.592  -2.332 -20.637  0.00  0.00    +0.000 A 
ATOM     12  C   UNK A   6      -8.200  -2.449 -21.173  0.00  0.00    +0.000 C 
ATOM     13  C   UNK A   6      -7.185  -1.578 -20.442  0.00  0.00    +0.000 C 
ATOM     14  N   UNK A   6      -7.384  -0.172 -20.757  0.00  0.00    +0.000 N 
ATOM     15  C   ALA A   5      -7.881   0.719 -19.909  0.00  0.00    +0.000 C 
ATOM     16  O   ALA A   5      -8.274   0.446 -18.774  0.00  0.00    +0.000 OA
ATOM     17  CA  ALA A   5      -7.933   2.136 -20.455  0.00  0.00    +0.000 C 
ATOM     18  N   ALA A   5      -8.700   3.026 -19.605  0.00  0.00    +0.000 N 
ATOM     19  H   ALA A   5      -8.500   3.060 -18.585  0.00  0.00    +0.000 HD
ATOM     20  H   UNK A   6      -7.120   0.156 -21.708  0.00  0.00    +0.000 HD
ATOM     21  C   UNK A   6     -10.596  -1.484 -20.952  0.00  0.00    +0.000 A 
ATOM     22  C   UNK A   4     -11.870   1.701 -19.328  0.00  0.00    +0.000 A 
ATOM     23  C   UNK A   4      -9.655   3.798 -20.111  0.00  0.00    +0.000 C 
ATOM     24  O   UNK A   4      -9.944   3.814 -21.310  0.00  0.00    +0.000 OA
ENDROOT
BRANCH   7  25
ATOM     25  N   UNK A   4     -13.062  -0.280 -22.755  0.00  0.00    +0.000 N 
ATOM     26  C   UNK A   4     -12.826  -1.354 -23.485  0.00  0.00    +0.000 A 
ATOM     27  N   UNK A   4     -12.530  -0.963 -24.711  0.00  0.00    +0.000 NA
ATOM     28  C   UNK A   4     -12.576   0.409 -24.766  0.00  0.00    +0.000 A 
ATOM     29  C   UNK A   4     -12.914   0.847 -23.530  0.00  0.00    +0.000 A 
BRANCH  29  30
ATOM     30  C   UNK A   4     -13.152   2.224 -22.993  0.00  0.00    +0.000 C 
BRANCH  30  31
ATOM     31  C   UNK A   4     -12.656   3.344 -23.908  0.00  0.00    +0.000 C 
BRANCH  31  32
ATOM     32  N   UNK A   4     -11.205   3.419 -23.878  0.00  0.00    +0.000 N 
ATOM     33  H   UNK A   4     -10.727   3.678 -22.991  0.00  0.00    +0.000 HD
ATOM     34  C   LEU A   2     -10.476   3.164 -24.957  0.00  0.00    +0.000 C 
ATOM     35  O   LEU A   2     -10.969   2.831 -26.032  0.00  0.00    +0.000 OA
BRANCH  34  36
ATOM     36  CA  LEU A   2      -8.968   3.295 -24.803  0.00  0.00    +0.000 C 
BRANCH  36  37
ATOM     37  N   LEU A   2      -8.336   2.142 -25.417  0.00  0.00    +0.000 N 
ATOM     38  C   GLU A   1      -7.891   1.119 -24.700  0.00  0.00    +0.000 C 
ATOM     39  O   GLU A   1      -7.947   1.079 -23.470  0.00  0.00    +0.000 OA
ATOM     40  H   LEU A   2      -8.229   2.117 -26.451  0.00  0.00    +0.000 HD
BRANCH  38  41
ATOM     41  CA  GLU A   1      -7.271  -0.018 -25.495  0.00  0.00    +0.000 C 
BRANCH  41  42
ATOM     42  N   GLU A   1      -6.055  -0.483 -24.850  0.00  0.00    +0.000 NA
ATOM     43  H   GLU A   1      -5.973  -0.437 -23.814  0.00  0.00    +0.000 HD
ENDBRANCH  41  42
BRANCH  41  44
ATOM     44  CB  GLU A   1      -8.272  -1.167 -25.628  0.00  0.00    +0.000 C 
BRANCH  44  45
ATOM     45  CG  GLU A   1      -9.428  -0.870 -26.569  0.00  0.00    +0.000 C 
BRANCH  45  46
ATOM     46  CD  GLU A   1     -10.245  -2.106 -26.882  0.00  0.00    +0.000 C 
ATOM     47  OE2 GLU A   1     -11.490  -2.037 -26.825  0.00  0.00    +0.000 OA
ATOM     48  OE1 GLU A   1      -9.634  -3.148 -27.196  0.00  0.00    +0.000 OA
ENDBRANCH  45  46
ENDBRANCH  44  45
ENDBRANCH  41  44
ENDBRANCH  38  41
ENDBRANCH  36  37
BRANCH  36  49
ATOM     49  CB  LEU A   2      -8.487   4.582 -25.481  0.00  0.00    +0.000 C 
BRANCH  49  50
ATOM     50  CG  LEU A   2      -9.343   5.838 -25.284  0.00  0.00    +0.000 C 
ATOM     51  CD2 LEU A   2      -9.297   6.314 -23.835  0.00  0.00    +0.000 C 
ATOM     52  CD1 LEU A   2      -8.837   6.926 -26.217  0.00  0.00    +0.000 C 
ENDBRANCH  49  50
ENDBRANCH  36  49
ENDBRANCH  34  36
ENDBRANCH  31  32
BRANCH  31  53
ATOM     53  C   UNK A   4     -13.257   4.668 -23.458  0.00  0.00    +0.000 C 
ATOM     54  O   UNK A   4     -12.952   5.158 -22.370  0.00  0.00    +0.000 OA
ATOM     55  N   UNK A   4     -14.096   5.251 -24.308  0.00  0.00    +0.000 N 
ATOM     56  H   UNK A   4     -14.282   4.798 -25.225  0.00  0.00    +0.000 HD
BRANCH  55  57
ATOM     57  C   UNK A   4     -14.764   6.509 -23.991  0.00  0.00    +0.000 C 
BRANCH  57  58
ATOM     58  C   UNK A   4     -16.247   6.151 -23.899  0.00  0.00    +0.000 C 
ATOM     59  N   ALA A   5     -16.787   6.162 -22.682  0.00  0.00    +0.000 N 
ATOM     60  H   ALA A   5     -16.204   6.456 -21.873  0.00  0.00    +0.000 HD
ATOM     61  O   UNK A   4     -16.886   5.866 -24.911  0.00  0.00    +0.000 OA
BRANCH  59  62
ATOM     62  CA  ALA A   5     -18.178   5.772 -22.451  0.00  0.00    +0.000 C 
ATOM     63  CB  ALA A   5     -18.258   4.915 -21.187  0.00  0.00    +0.000 C 
BRANCH  62  64
ATOM     64  C   ALA A   5     -19.199   6.900 -22.370  0.00  0.00    +0.000 C 
ATOM     65  O   ALA A   5     -18.909   7.980 -21.857  0.00  0.00    +0.000 OA
ATOM     66  N   UNK A   6     -20.402   6.624 -22.875  0.00  0.00    +0.000 N 
ATOM     67  H   UNK A   6     -20.565   5.683 -23.287  0.00  0.00    +0.000 HD
BRANCH  66  68
ATOM     68  C   UNK A   6     -21.504   7.588 -22.875  0.00  0.00    +0.000 C 
BRANCH  68  69
ATOM     69  C   UNK A   6     -22.810   6.860 -22.552  0.00  0.00    +0.000 C 
ATOM     70  O   UNK A   6     -22.902   5.645 -22.724  0.00  0.00    +0.000 OA
ENDBRANCH  68  69
BRANCH  68  71
ATOM     71  C   UNK A   6     -21.678   8.242 -24.255  0.00  0.00    +0.000 C 
BRANCH  71  72
ATOM     72  C   UNK A   6     -20.397   8.603 -24.938  0.00  0.00    +0.000 A 
ATOM     73  C   UNK A   6     -19.874   9.809 -25.273  0.00  0.00    +0.000 A 
ATOM     74  N   UNK A   6     -18.691   9.571 -25.925  0.00  0.00    +0.000 NA
ATOM     75  C   UNK A   6     -18.489   8.266 -25.989  0.00  0.00    +0.000 A 
ATOM     76  N   UNK A   6     -19.504   7.660 -25.399  0.00  0.00    +0.000 NA
ENDBRANCH  71  72
ENDBRANCH  68  71
ENDBRANCH  66  68
ENDBRANCH  62  64
ENDBRANCH  59  62
ENDBRANCH  57  58
BRANCH  57  77
ATOM     77  C   UNK A   4     -14.533   7.554 -25.097  0.00  0.00    +0.000 C 
ATOM     78  C   UNK A   4     -15.114   8.885 -24.672  0.00  0.00    +0.000 C 
ATOM     79  C   UNK A   4     -13.037   7.695 -25.379  0.00  0.00    +0.000 C 
ENDBRANCH  57  77
ENDBRANCH  55  57
ENDBRANCH  31  53
ENDBRANCH  30  31
ENDBRANCH  29  30
ENDBRANCH   7  25
BRANCH   1  82
ATOM     80  C   UNK A   3     -11.892   6.576 -19.406  0.00  0.00    +0.000 C 
ATOM     81  O   UNK A   3     -11.552   7.065 -18.323  0.00  0.00    +0.000 OA
ATOM     82  N   UNK A   4     -11.402   5.434 -19.867  0.00  0.00    +0.000 N 
ATOM     83  H   UNK A   4     -11.742   5.066 -20.778  0.00  0.00    +0.000 HD
BRANCH  80  84
ATOM     84  C   UNK A   3     -12.954   7.243 -20.270  0.00  0.00    +0.000 C 
BRANCH  84  86
ATOM     85  C   LEU A   2     -15.191   7.951 -19.610  0.00  0.00    +0.000 C 
ATOM     86  N   UNK A   3     -13.891   7.860 -19.351  0.00  0.00    +0.000 N 
ATOM     87  H   UNK A   3     -13.532   8.246 -18.455  0.00  0.00    +0.000 HD
ATOM     88  O   LEU A   2     -15.697   7.601 -20.677  0.00  0.00    +0.000 OA
BRANCH  85  89
ATOM     89  CA  LEU A   2     -16.033   8.553 -18.489  0.00  0.00    +0.000 C 
BRANCH  89  92
ATOM     90  C   GLU A   1     -18.092   9.735 -18.053  0.00  0.00    +0.000 C 
ATOM     91  O   GLU A   1     -17.766   9.926 -16.882  0.00  0.00    +0.000 OA
ATOM     92  N   LEU A   2     -17.312   9.097 -18.922  0.00  0.00    +0.000 N 
ATOM     93  H   LEU A   2     -17.616   8.987 -19.910  0.00  0.00    +0.000 HD
BRANCH  90  94
ATOM     94  CA  GLU A   1     -19.421  10.266 -18.564  0.00  0.00    +0.000 C 
BRANCH  94  95
ATOM     95  N   GLU A   1     -19.489  10.363 -20.012  0.00  0.00    +0.000 NA
ATOM     96  H   GLU A   1     -19.081   9.611 -20.603  0.00  0.00    +0.000 HD
ENDBRANCH  94  95
BRANCH  94  97
ATOM     97  CB  GLU A   1     -20.585   9.428 -17.994  0.00  0.00    +0.000 C 
BRANCH  97  98
ATOM     98  CG  GLU A   1     -20.474   7.937 -18.228  0.00  0.00    +0.000 A 
ATOM     99  CD2 GLU A   1     -19.885   7.120 -17.263  0.00  0.00    +0.000 A 
ATOM    100  CE2 GLU A   1     -19.847   5.729 -17.412  0.00  0.00    +0.000 A 
ATOM    101  CZ  GLU A   1     -20.405   5.138 -18.543  0.00  0.00    +0.000 A 
ATOM    102  CE1 GLU A   1     -20.996   5.945 -19.527  0.00  0.00    +0.000 A 
ATOM    103  CD1 GLU A   1     -21.027   7.341 -19.365  0.00  0.00    +0.000 A 
ENDBRANCH  97  98
ENDBRANCH  94  97
ENDBRANCH  90  94
ENDBRANCH  89  92
BRANCH  89 104
ATOM    104  CB  LEU A   2     -16.290   7.486 -17.414  0.00  0.00    +0.000 C 
BRANCH 104 105
ATOM    105  CG  LEU A   2     -15.090   6.632 -17.038  0.00  0.00    +0.000 C 
BRANCH 105 106
ATOM    106  CD  LEU A   2     -15.492   5.376 -16.283  0.00  0.00    +0.000 C 
ATOM    107  NE2 LEU A   2     -16.094   5.555 -15.112  0.00  0.00    +0.000 N 
ATOM    108 HE21 LEU A   2     -16.398   4.733 -14.552  0.00  0.00    +0.000 HD
ATOM    109 HE22 LEU A   2     -16.261   6.517 -14.755  0.00  0.00    +0.000 HD
ATOM    110  OE1 LEU A   2     -15.270   4.259 -16.751  0.00  0.00    +0.000 OA
ENDBRANCH 105 106
ENDBRANCH 104 105
ENDBRANCH  89 104
ENDBRANCH  85  89
ENDBRANCH  84  86
BRANCH  84 111
ATOM    111  C   UNK A   3     -12.360   8.269 -21.258  0.00  0.00    +0.000 C 
BRANCH 111 112
ATOM    112  C   UNK A   3     -11.186   9.068 -20.734  0.00  0.00    +0.000 A 
ATOM    113  C   UNK A   3     -11.313  10.440 -20.498  0.00  0.00    +0.000 A 
ATOM    114  C   UNK A   3     -10.199  11.219 -20.135  0.00  0.00    +0.000 A 
ATOM    115  C   UNK A   3      -8.942  10.617 -20.001  0.00  0.00    +0.000 A 
ATOM    116  C   UNK A   3      -8.806   9.249 -20.225  0.00  0.00    +0.000 A 
ATOM    117  C   UNK A   3      -9.927   8.482 -20.588  0.00  0.00    +0.000 A 
ENDBRANCH 111 112
ENDBRANCH  84 111
ENDBRANCH  80  84
ENDBRANCH   1  82
BRANCH  13 118
ATOM    118  C   UNK A   6      -5.794  -1.866 -20.979  0.00  0.00    +0.000 C 
ATOM    119  O   UNK A   6      -5.406  -1.316 -22.010  0.00  0.00    +0.000 OA
ENDBRANCH  13 118
BRANCH  17 120
ATOM    120  CB  ALA A   5      -6.492   2.629 -20.608  0.00  0.00    +0.000 C 
BRANCH 120 121
ATOM    121  CG  ALA A   5      -6.368   4.078 -20.974  0.00  0.00    +0.000 A 
ATOM    122  CD2 ALA A   5      -6.539   5.070 -20.012  0.00  0.00    +0.000 A 
ATOM    123  CE2 ALA A   5      -6.371   6.419 -20.333  0.00  0.00    +0.000 A 
ATOM    124  CZ  ALA A   5      -6.030   6.786 -21.637  0.00  0.00    +0.000 A 
ATOM    125  CE1 ALA A   5      -5.863   5.801 -22.607  0.00  0.00    +0.000 A 
ATOM    126  CD1 ALA A   5      -6.034   4.453 -22.271  0.00  0.00    +0.000 A 
ENDBRANCH 120 121
ENDBRANCH  17 120
TORSDOF 40
REMARK  Name = ../refined-set-2016/2nmx/2nmx_pocket.pdb
REMARK  157 active torsions:
REMARK  status: ('A' for Active; 'I' for Inactive)
REMARK    1  A    between atoms: _1  and  _3
REMARK    2  A    between atoms: _3  and  _4
REMARK    3  A    between atoms: _3  and  _6
REMARK    4  A    between atoms: _6  and  _7
REMARK    5  A    between atoms: _17  and  _19
REMARK    6  A    between atoms: _19  and  _20
REMARK    7  A    between atoms: _19  and  _22
REMARK    8  A    between atoms: _22  and  _23
REMARK    9  A    between atoms: _28  and  _29
REMARK   10  A    between atoms: _31  and  _33
REMARK   11  A    between atoms: _33  and  _34
REMARK   12  A    between atoms: _33  and  _36
REMARK   13  A    between atoms: _36  and  _37
REMARK   14  A    between atoms: _40  and  _41
REMARK   15  A    between atoms: _46  and  _48
REMARK   16  A    between atoms: _48  and  _49
REMARK   17  A    between atoms: _48  and  _51
REMARK   18  A    between atoms: _54  and  _56
REMARK   19  A    between atoms: _56  and  _57
REMARK   20  A    between atoms: _56  and  _59
REMARK   21  A    between atoms: _59  and  _60
REMARK   22  A    between atoms: _65  and  _67
REMARK   23  A    between atoms: _67  and  _68
REMARK   24  A    between atoms: _67  and  _70
REMARK   25  A    between atoms: _70  and  _71
REMARK   26  A    between atoms: _73  and  _75
REMARK   27  A    between atoms: _75  and  _76
REMARK   28  A    between atoms: _75  and  _78
REMARK   29  A    between atoms: _78  and  _79
REMARK   30  A    between atoms: _84  and  _86
REMARK   31  A    between atoms: _86  and  _87
REMARK   32  A    between atoms: _86  and  _89
REMARK   33  A    between atoms: _89  and  _90
REMARK   34  A    between atoms: _95  and  _97
REMARK   35  A    between atoms: _97  and  _98
REMARK   36  A    between atoms: _97  and  _100
REMARK   37  A    between atoms: _100  and  _101
REMARK   38  A    between atoms: _107  and  _109
REMARK   39  A    between atoms: _109  and  _110
REMARK   40  A    between atoms: _109  and  _112
REMARK   41  A    between atoms: _112  and  _113
REMARK   42  A    between atoms: _119  and  _121
REMARK   43  A    between atoms: _121  and  _122
REMARK   44  A    between atoms: _121  and  _124
REMARK   45  A    between atoms: _124  and  _125
REMARK   46  A    between atoms: _125  and  _126
REMARK   47  A    between atoms: _131  and  _133
REMARK   48  A    between atoms: _133  and  _134
REMARK   49  A    between atoms: _133  and  _136
REMARK   50  A    between atoms: _136  and  _137
REMARK   51  A    between atoms: _143  and  _145
REMARK   52  A    between atoms: _156  and  _159
REMARK   53  A    between atoms: _159  and  _160
REMARK   54  A    between atoms: _168  and  _169
REMARK   55  A    between atoms: _177  and  _179
REMARK   56  A    between atoms: _179  and  _180
REMARK   57  A    between atoms: _179  and  _182
REMARK   58  A    between atoms: _182  and  _183
REMARK   59  A    between atoms: _183  and  _184
REMARK   60  A    between atoms: _187  and  _189
REMARK   61  A    between atoms: _189  and  _190
REMARK   62  A    between atoms: _189  and  _192
REMARK   63  A    between atoms: _192  and  _193
REMARK   64  A    between atoms: _198  and  _200
REMARK   65  A    between atoms: _200  and  _201
REMARK   66  A    between atoms: _200  and  _203
REMARK   67  A    between atoms: _203  and  _204
REMARK   68  A    between atoms: _204  and  _205
REMARK   69  A    between atoms: _208  and  _210
REMARK   70  A    between atoms: _210  and  _211
REMARK   71  A    between atoms: _210  and  _213
REMARK   72  A    between atoms: _213  and  _214
REMARK   73  A    between atoms: _217  and  _219
REMARK   74  A    between atoms: _219  and  _220
REMARK   75  A    between atoms: _219  and  _222
REMARK   76  A    between atoms: _222  and  _223
REMARK   77  A    between atoms: _224  and  ZN_444
REMARK   78  A    between atoms: _228  and  _230
REMARK   79  A    between atoms: _230  and  _231
REMARK   80  A    between atoms: _230  and  _233
REMARK   81  A    between atoms: _236  and  _238
REMARK   82  A    between atoms: _238  and  _239
REMARK   83  A    between atoms: _242  and  _244
REMARK   84  A    between atoms: _244  and  _245
REMARK   85  A    between atoms: _244  and  _247
REMARK   86  A    between atoms: _247  and  _248
REMARK   87  A    between atoms: _253  and  _255
REMARK   88  A    between atoms: _255  and  _256
REMARK   89  A    between atoms: _255  and  _258
REMARK   90  A    between atoms: _258  and  _259
REMARK   91  A    between atoms: _262  and  _264
REMARK   92  A    between atoms: _264  and  _265
REMARK   93  A    between atoms: _268  and  _270
REMARK   94  A    between atoms: _270  and  _271
REMARK   95  A    between atoms: _270  and  _273
REMARK   96  A    between atoms: _273  and  _274
REMARK   97  A    between atoms: _277  and  _279
REMARK   98  A    between atoms: _279  and  _280
REMARK   99  A    between atoms: _283  and  _285
REMARK  100  A    between atoms: _285  and  _286
REMARK  101  A    between atoms: _285  and  _288
REMARK  102  A    between atoms: _291  and  _293
REMARK  103  A    between atoms: _293  and  _294
REMARK  104  A    between atoms: _293  and  _296
REMARK  105  A    between atoms: _296  and  _297
REMARK  106  A    between atoms: _300  and  _302
REMARK  107  A    between atoms: _302  and  _303
REMARK  108  A    between atoms: _305  and  _307
REMARK  109  A    between atoms: _307  and  _308
REMARK  110  A    between atoms: _310  and  _312
REMARK  111  A    between atoms: _312  and  _313
REMARK  112  A    between atoms: _312  and  _315
REMARK  113  A    between atoms: _315  and  _316
REMARK  114  A    between atoms: _318  and  _320
REMARK  115  A    between atoms: _320  and  _321
REMARK  116  A    between atoms: _320  and  _323
REMARK  117  A    between atoms: _323  and  _324
REMARK  118  A    between atoms: _327  and  _329
REMARK  119  A    between atoms: _329  and  _330
REMARK  120  A    between atoms: _329  and  _332
REMARK  121  A    between atoms: _332  and  _333
REMARK  122  A    between atoms: _336  and  _338
REMARK  123  A    between atoms: _338  and  _339
REMARK  124  A    between atoms: _338  and  _341
REMARK  125  A    between atoms: _341  and  _342
REMARK  126  A    between atoms: _348  and  _349
REMARK  127  A    between atoms: _355  and  _356
REMARK  128  A    between atoms: _361  and  _363
REMARK  129  A    between atoms: _363  and  _364
REMARK  130  A    between atoms: _363  and  _366
REMARK  131  A    between atoms: _366  and  _367
REMARK  132  A    between atoms: _370  and  _372
REMARK  133  A    between atoms: _372  and  _373
REMARK  134  A    between atoms: _372  and  _375
REMARK  135  A    between atoms: _375  and  _376
REMARK  136  A    between atoms: _381  and  _382
REMARK  137  A    between atoms: _384  and  _386
REMARK  138  A    between atoms: _386  and  _387
REMARK  139  A    between atoms: _386  and  _389
REMARK  140  A    between atoms: _389  and  _390
REMARK  141  A    between atoms: _392  and  _394
REMARK  142  A    between atoms: _394  and  _395
REMARK  143  A    between atoms: _394  and  _397
REMARK  144  A    between atoms: _400  and  _402
REMARK  145  A    between atoms: _402  and  _403
REMARK  146  A    between atoms: _402  and  _405
REMARK  147  A    between atoms: _405  and  _406
REMARK  148  A    between atoms: _416  and  _418
REMARK  149  A    between atoms: _418  and  _419
REMARK  150  A    between atoms: _418  and  _421
REMARK  151  A    between atoms: _421  and  _422
REMARK  152  A    between atoms: _427  and  _429
REMARK  153  A    between atoms: _429  and  _430
REMARK  154  A    between atoms: _429  and  _432
REMARK  155  A    between atoms: _432  and  _433
REMARK  156  A    between atoms: _433  and  _434
REMARK  157  A    between atoms: _434  and  _435
REMARK                            x       y       z     vdW  Elec       q    Type
REMARK                         _______ _______ _______ _____ _____    ______ ____
ROOT
ATOM      1  C   GLU A   1     -10.177  -6.627 -26.684  0.00  0.00    +0.238 C 
ATOM      2  O   GLU A   1     -10.256  -7.839 -26.904  0.00  0.00    -0.274 OA
ATOM      3  N   HIS A   2     -10.516  -5.712 -27.584  0.00  0.00    -0.298 N 
ATOM      4  H   HIS A   2     -10.466  -4.702 -27.342  0.00  0.00    +0.150 HD
ENDROOT
BRANCH   1   5
ATOM      5  CA  GLU A   1      -9.667  -6.111 -25.345  0.00  0.00    +0.145 C 
BRANCH   5   6
ATOM      6  N   GLU A   1      -8.585  -5.184 -25.612  0.00  0.00    -0.238 NA
ATOM      7  H   GLU A   1      -8.798  -4.197 -25.859  0.00  0.00    +0.142 HD
ENDBRANCH   5   6
BRANCH   5   8
ATOM      8  CB  GLU A   1     -10.770  -5.424 -24.542  0.00  0.00    +0.038 C 
BRANCH   8   9
ATOM      9  CG  GLU A   1     -10.280  -4.978 -23.168  0.00  0.00    +0.116 C 
BRANCH   9  10
ATOM     10  CD  GLU A   1     -11.371  -4.977 -22.118  0.00  0.00    +0.365 C 
ATOM     11  OE2 GLU A   1     -11.291  -5.799 -21.180  0.00  0.00    -0.246 OA
ATOM     12  OE1 GLU A   1     -12.308  -4.159 -22.228  0.00  0.00    -0.246 OA
ENDBRANCH   9  10
ENDBRANCH   8   9
ENDBRANCH   5   8
ENDBRANCH   1   5
BRANCH   3  13
ATOM     13  CA  HIS A   2     -10.956  -6.121 -28.904  0.00  0.00    +0.143 C 
BRANCH  13  14
ATOM     14  C   HIS A   2      -9.702  -6.445 -29.704  0.00  0.00    +0.227 C 
ATOM     15  O   HIS A   2      -8.615  -5.932 -29.421  0.00  0.00    -0.286 OA
ENDBRANCH  13  14
BRANCH  13  16
ATOM     16  CB  HIS A   2     -11.723  -5.004 -29.619  0.00  0.00    +0.075 C 
BRANCH  16  17
ATOM     17  CG  HIS A   2     -13.076  -4.727 -29.045  0.00  0.00    +0.082 A 
ATOM     18  ND1 HIS A   2     -13.266  -3.960 -27.917  0.00  0.00    -0.227 NA
ATOM     19  CE1 HIS A   2     -14.557  -3.894 -27.643  0.00  0.00    +0.199 A 
ATOM     20  NE2 HIS A   2     -15.211  -4.592 -28.554  0.00  0.00    -0.221 NA
ATOM     21  CD2 HIS A   2     -14.310  -5.123 -29.442  0.00  0.00    +0.115 A 
ENDBRANCH  16  17
ENDBRANCH  13  16
ENDBRANCH   3  13
TORSDOF 9
REMARK  Name = ../refined-set-2016/2nmx/2nmx_pocket.pdb
REMARK  157 active torsions:
REMARK  status: ('A' for Active; 'I' for Inactive)
REMARK    1  A    between atoms: _1  and  _3
REMARK    2  A    between atoms: _3  and  _4
REMARK    3  A    between atoms: _3  and  _6
REMARK    4  A    between atoms: _6  and  _7
REMARK    5  A    between atoms: _17  and  _19
REMARK    6  A    between atoms: _19  and  _20
REMARK    7  A    between atoms: _19  and  _22
REMARK    8  A    between atoms: _22  and  _23
REMARK    9  A    between atoms: _28  and  _29
REMARK   10  A    between atoms: _31  and  _33
REMARK   11  A    between atoms: _33  and  _34
REMARK   12  A    between atoms: _33  and  _36
REMARK   13  A    between atoms: _36  and  _37
REMARK   14  A    between atoms: _40  and  _41
REMARK   15  A    between atoms: _46  and  _48
REMARK   16  A    between atoms: _48  and  _49
REMARK   17  A    between atoms: _48  and  _51
REMARK   18  A    between atoms: _54  and  _56
REMARK   19  A    between atoms: _56  and  _57
REMARK   20  A    between atoms: _56  and  _59
REMARK   21  A    between atoms: _59  and  _60
REMARK   22  A    between atoms: _65  and  _67
REMARK   23  A    between atoms: _67  and  _68
REMARK   24  A    between atoms: _67  and  _70
REMARK   25  A    between atoms: _70  and  _71
REMARK   26  A    between atoms: _73  and  _75
REMARK   27  A    between atoms: _75  and  _76
REMARK   28  A    between atoms: _75  and  _78
REMARK   29  A    between atoms: _78  and  _79
REMARK   30  A    between atoms: _84  and  _86
REMARK   31  A    between atoms: _86  and  _87
REMARK   32  A    between atoms: _86  and  _89
REMARK   33  A    between atoms: _89  and  _90
REMARK   34  A    between atoms: _95  and  _97
REMARK   35  A    between atoms: _97  and  _98
REMARK   36  A    between atoms: _97  and  _100
REMARK   37  A    between atoms: _100  and  _101
REMARK   38  A    between atoms: _107  and  _109
REMARK   39  A    between atoms: _109  and  _110
REMARK   40  A    between atoms: _109  and  _112
REMARK   41  A    between atoms: _112  and  _113
REMARK   42  A    between atoms: _119  and  _121
REMARK   43  A    between atoms: _121  and  _122
REMARK   44  A    between atoms: _121  and  _124
REMARK   45  A    between atoms: _124  and  _125
REMARK   46  A    between atoms: _125  and  _126
REMARK   47  A    between atoms: _131  and  _133
REMARK   48  A    between atoms: _133  and  _134
REMARK   49  A    between atoms: _133  and  _136
REMARK   50  A    between atoms: _136  and  _137
REMARK   51  A    between atoms: _143  and  _145
REMARK   52  A    between atoms: _156  and  _159
REMARK   53  A    between atoms: _159  and  _160
REMARK   54  A    between atoms: _168  and  _169
REMARK   55  A    between atoms: _177  and  _179
REMARK   56  A    between atoms: _179  and  _180
REMARK   57  A    between atoms: _179  and  _182
REMARK   58  A    between atoms: _182  and  _183
REMARK   59  A    between atoms: _183  and  _184
REMARK   60  A    between atoms: _187  and  _189
REMARK   61  A    between atoms: _189  and  _190
REMARK   62  A    between atoms: _189  and  _192
REMARK   63  A    between atoms: _192  and  _193
REMARK   64  A    between atoms: _198  and  _200
REMARK   65  A    between atoms: _200  and  _201
REMARK   66  A    between atoms: _200  and  _203
REMARK   67  A    between atoms: _203  and  _204
REMARK   68  A    between atoms: _204  and  _205
REMARK   69  A    between atoms: _208  and  _210
REMARK   70  A    between atoms: _210  and  _211
REMARK   71  A    between atoms: _210  and  _213
REMARK   72  A    between atoms: _213  and  _214
REMARK   73  A    between atoms: _217  and  _219
REMARK   74  A    between atoms: _219  and  _220
REMARK   75  A    between atoms: _219  and  _222
REMARK   76  A    between atoms: _222  and  _223
REMARK   77  A    between atoms: _224  and  ZN_444
REMARK   78  A    between atoms: _228  and  _230
REMARK   79  A    between atoms: _230  and  _231
REMARK   80  A    between atoms: _230  and  _233
REMARK   81  A    between atoms: _236  and  _238
REMARK   82  A    between atoms: _238  and  _239
REMARK   83  A    between atoms: _242  and  _244
REMARK   84  A    between atoms: _244  and  _245
REMARK   85  A    between atoms: _244  and  _247
REMARK   86  A    between atoms: _247  and  _248
REMARK   87  A    between atoms: _253  and  _255
REMARK   88  A    between atoms: _255  and  _256
REMARK   89  A    between atoms: _255  and  _258
REMARK   90  A    between atoms: _258  and  _259
REMARK   91  A    between atoms: _262  and  _264
REMARK   92  A    between atoms: _264  and  _265
REMARK   93  A    between atoms: _268  and  _270
REMARK   94  A    between atoms: _270  and  _271
REMARK   95  A    between atoms: _270  and  _273
REMARK   96  A    between atoms: _273  and  _274
REMARK   97  A    between atoms: _277  and  _279
REMARK   98  A    between atoms: _279  and  _280
REMARK   99  A    between atoms: _283  and  _285
REMARK  100  A    between atoms: _285  and  _286
REMARK  101  A    between atoms: _285  and  _288
REMARK  102  A    between atoms: _291  and  _293
REMARK  103  A    between atoms: _293  and  _294
REMARK  104  A    between atoms: _293  and  _296
REMARK  105  A    between atoms: _296  and  _297
REMARK  106  A    between atoms: _300  and  _302
REMARK  107  A    between atoms: _302  and  _303
REMARK  108  A    between atoms: _305  and  _307
REMARK  109  A    between atoms: _307  and  _308
REMARK  110  A    between atoms: _310  and  _312
REMARK  111  A    between atoms: _312  and  _313
REMARK  112  A    between atoms: _312  and  _315
REMARK  113  A    between atoms: _315  and  _316
REMARK  114  A    between atoms: _318  and  _320
REMARK  115  A    between atoms: _320  and  _321
REMARK  116  A    between atoms: _320  and  _323
REMARK  117  A    between atoms: _323  and  _324
REMARK  118  A    between atoms: _327  and  _329
REMARK  119  A    between atoms: _329  and  _330
REMARK  120  A    between atoms: _329  and  _332
REMARK  121  A    between atoms: _332  and  _333
REMARK  122  A    between atoms: _336  and  _338
REMARK  123  A    between atoms: _338  and  _339
REMARK  124  A    between atoms: _338  and  _341
REMARK  125  A    between atoms: _341  and  _342
REMARK  126  A    between atoms: _348  and  _349
REMARK  127  A    between atoms: _355  and  _356
REMARK  128  A    between atoms: _361  and  _363
REMARK  129  A    between atoms: _363  and  _364
REMARK  130  A    between atoms: _363  and  _366
REMARK  131  A    between atoms: _366  and  _367
REMARK  132  A    between atoms: _370  and  _372
REMARK  133  A    between atoms: _372  and  _373
REMARK  134  A    between atoms: _372  and  _375
REMARK  135  A    between atoms: _375  and  _376
REMARK  136  A    between atoms: _381  and  _382
REMARK  137  A    between atoms: _384  and  _386
REMARK  138  A    between atoms: _386  and  _387
REMARK  139  A    between atoms: _386  and  _389
REMARK  140  A    between atoms: _389  and  _390
REMARK  141  A    between atoms: _392  and  _394
REMARK  142  A    between atoms: _394  and  _395
REMARK  143  A    between atoms: _394  and  _397
REMARK  144  A    between atoms: _400  and  _402
REMARK  145  A    between atoms: _402  and  _403
REMARK  146  A    between atoms: _402  and  _405
REMARK  147  A    between atoms: _405  and  _406
REMARK  148  A    between atoms: _416  and  _418
REMARK  149  A    between atoms: _418  and  _419
REMARK  150  A    between atoms: _418  and  _421
REMARK  151  A    between atoms: _421  and  _422
REMARK  152  A    between atoms: _427  and  _429
REMARK  153  A    between atoms: _429  and  _430
REMARK  154  A    between atoms: _429  and  _432
REMARK  155  A    between atoms: _432  and  _433
REMARK  156  A    between atoms: _433  and  _434
REMARK  157  A    between atoms: _434  and  _435
REMARK                            x       y       z     vdW  Elec       q    Type
REMARK                         _______ _______ _______ _____ _____    ______ ____
ROOT
ATOM      1  CA  LEU A   1     -26.265   6.531 -15.960  0.00  0.00    +0.133 C 
ENDROOT
BRANCH   1   2
ATOM      2  N   LEU A   1     -27.137   7.639 -15.599  0.00  0.00    -0.239 NA
ATOM      3  H   LEU A   1     -26.750   8.432 -15.048  0.00  0.00    +0.142 HD
ENDBRANCH   1   2
BRANCH   1   4
ATOM      4  C   LEU A   1     -26.791   5.245 -15.331  0.00  0.00    +0.224 C 
ATOM      5  O   LEU A   1     -26.879   4.208 -15.987  0.00  0.00    -0.287 OA
ENDBRANCH   1   4
BRANCH   1   6
ATOM      6  CB  LEU A   1     -24.844   6.790 -15.460  0.00  0.00    +0.025 C 
BRANCH   6   7
ATOM      7  CG  LEU A   1     -23.896   5.588 -15.501  0.00  0.00    +0.002 C 
ATOM      8  CD2 LEU A   1     -22.566   5.971 -14.871  0.00  0.00    +0.000 C 
ATOM      9  CD1 LEU A   1     -23.698   5.124 -16.939  0.00  0.00    +0.000 C 
ENDBRANCH   6   7
ENDBRANCH   1   6
TORSDOF 4
REMARK  Name = ../refined-set-2016/2nmx/2nmx_pocket.pdb
REMARK  157 active torsions:
REMARK  status: ('A' for Active; 'I' for Inactive)
REMARK    1  A    between atoms: _1  and  _3
REMARK    2  A    between atoms: _3  and  _4
REMARK    3  A    between atoms: _3  and  _6
REMARK    4  A    between atoms: _6  and  _7
REMARK    5  A    between atoms: _17  and  _19
REMARK    6  A    between atoms: _19  and  _20
REMARK    7  A    between atoms: _19  and  _22
REMARK    8  A    between atoms: _22  and  _23
REMARK    9  A    between atoms: _28  and  _29
REMARK   10  A    between atoms: _31  and  _33
REMARK   11  A    between atoms: _33  and  _34
REMARK   12  A    between atoms: _33  and  _36
REMARK   13  A    between atoms: _36  and  _37
REMARK   14  A    between atoms: _40  and  _41
REMARK   15  A    between atoms: _46  and  _48
REMARK   16  A    between atoms: _48  and  _49
REMARK   17  A    between atoms: _48  and  _51
REMARK   18  A    between atoms: _54  and  _56
REMARK   19  A    between atoms: _56  and  _57
REMARK   20  A    between atoms: _56  and  _59
REMARK   21  A    between atoms: _59  and  _60
REMARK   22  A    between atoms: _65  and  _67
REMARK   23  A    between atoms: _67  and  _68
REMARK   24  A    between atoms: _67  and  _70
REMARK   25  A    between atoms: _70  and  _71
REMARK   26  A    between atoms: _73  and  _75
REMARK   27  A    between atoms: _75  and  _76
REMARK   28  A    between atoms: _75  and  _78
REMARK   29  A    between atoms: _78  and  _79
REMARK   30  A    between atoms: _84  and  _86
REMARK   31  A    between atoms: _86  and  _87
REMARK   32  A    between atoms: _86  and  _89
REMARK   33  A    between atoms: _89  and  _90
REMARK   34  A    between atoms: _95  and  _97
REMARK   35  A    between atoms: _97  and  _98
REMARK   36  A    between atoms: _97  and  _100
REMARK   37  A    between atoms: _100  and  _101
REMARK   38  A    between atoms: _107  and  _109
REMARK   39  A    between atoms: _109  and  _110
REMARK   40  A    between atoms: _109  and  _112
REMARK   41  A    between atoms: _112  and  _113
REMARK   42  A    between atoms: _119  and  _121
REMARK   43  A    between atoms: _121  and  _122
REMARK   44  A    between atoms: _121  and  _124
REMARK   45  A    between atoms: _124  and  _125
REMARK   46  A    between atoms: _125  and  _126
REMARK   47  A    between atoms: _131  and  _133
REMARK   48  A    between atoms: _133  and  _134
REMARK   49  A    between atoms: _133  and  _136
REMARK   50  A    between atoms: _136  and  _137
REMARK   51  A    between atoms: _143  and  _145
REMARK   52  A    between atoms: _156  and  _159
REMARK   53  A    between atoms: _159  and  _160
REMARK   54  A    between atoms: _168  and  _169
REMARK   55  A    between atoms: _177  and  _179
REMARK   56  A    between atoms: _179  and  _180
REMARK   57  A    between atoms: _179  and  _182
REMARK   58  A    between atoms: _182  and  _183
REMARK   59  A    between atoms: _183  and  _184
REMARK   60  A    between atoms: _187  and  _189
REMARK   61  A    between atoms: _189  and  _190
REMARK   62  A    between atoms: _189  and  _192
REMARK   63  A    between atoms: _192  and  _193
REMARK   64  A    between atoms: _198  and  _200
REMARK   65  A    between atoms: _200  and  _201
REMARK   66  A    between atoms: _200  and  _203
REMARK   67  A    between atoms: _203  and  _204
REMARK   68  A    between atoms: _204  and  _205
REMARK   69  A    between atoms: _208  and  _210
REMARK   70  A    between atoms: _210  and  _211
REMARK   71  A    between atoms: _210  and  _213
REMARK   72  A    between atoms: _213  and  _214
REMARK   73  A    between atoms: _217  and  _219
REMARK   74  A    between atoms: _219  and  _220
REMARK   75  A    between atoms: _219  and  _222
REMARK   76  A    between atoms: _222  and  _223
REMARK   77  A    between atoms: _224  and  ZN_444
REMARK   78  A    between atoms: _228  and  _230
REMARK   79  A    between atoms: _230  and  _231
REMARK   80  A    between atoms: _230  and  _233
REMARK   81  A    between atoms: _236  and  _238
REMARK   82  A    between atoms: _238  and  _239
REMARK   83  A    between atoms: _242  and  _244
REMARK   84  A    between atoms: _244  and  _245
REMARK   85  A    between atoms: _244  and  _247
REMARK   86  A    between atoms: _247  and  _248
REMARK   87  A    between atoms: _253  and  _255
REMARK   88  A    between atoms: _255  and  _256
REMARK   89  A    between atoms: _255  and  _258
REMARK   90  A    between atoms: _258  and  _259
REMARK   91  A    between atoms: _262  and  _264
REMARK   92  A    between atoms: _264  and  _265
REMARK   93  A    between atoms: _268  and  _270
REMARK   94  A    between atoms: _270  and  _271
REMARK   95  A    between atoms: _270  and  _273
REMARK   96  A    between atoms: _273  and  _274
REMARK   97  A    between atoms: _277  and  _279
REMARK   98  A    between atoms: _279  and  _280
REMARK   99  A    between atoms: _283  and  _285
REMARK  100  A    between atoms: _285  and  _286
REMARK  101  A    between atoms: _285  and  _288
REMARK  102  A    between atoms: _291  and  _293
REMARK  103  A    between atoms: _293  and  _294
REMARK  104  A    between atoms: _293  and  _296
REMARK  105  A    between atoms: _296  and  _297
REMARK  106  A    between atoms: _300  and  _302
REMARK  107  A    between atoms: _302  and  _303
REMARK  108  A    between atoms: _305  and  _307
REMARK  109  A    between atoms: _307  and  _308
REMARK  110  A    between atoms: _310  and  _312
REMARK  111  A    between atoms: _312  and  _313
REMARK  112  A    between atoms: _312  and  _315
REMARK  113  A    between atoms: _315  and  _316
REMARK  114  A    between atoms: _318  and  _320
REMARK  115  A    between atoms: _320  and  _321
REMARK  116  A    between atoms: _320  and  _323
REMARK  117  A    between atoms: _323  and  _324
REMARK  118  A    between atoms: _327  and  _329
REMARK  119  A    between atoms: _329  and  _330
REMARK  120  A    between atoms: _329  and  _332
REMARK  121  A    between atoms: _332  and  _333
REMARK  122  A    between atoms: _336  and  _338
REMARK  123  A    between atoms: _338  and  _339
REMARK  124  A    between atoms: _338  and  _341
REMARK  125  A    between atoms: _341  and  _342
REMARK  126  A    between atoms: _348  and  _349
REMARK  127  A    between atoms: _355  and  _356
REMARK  128  A    between atoms: _361  and  _363
REMARK  129  A    between atoms: _363  and  _364
REMARK  130  A    between atoms: _363  and  _366
REMARK  131  A    between atoms: _366  and  _367
REMARK  132  A    between atoms: _370  and  _372
REMARK  133  A    between atoms: _372  and  _373
REMARK  134  A    between atoms: _372  and  _375
REMARK  135  A    between atoms: _375  and  _376
REMARK  136  A    between atoms: _381  and  _382
REMARK  137  A    between atoms: _384  and  _386
REMARK  138  A    between atoms: _386  and  _387
REMARK  139  A    between atoms: _386  and  _389
REMARK  140  A    between atoms: _389  and  _390
REMARK  141  A    between atoms: _392  and  _394
REMARK  142  A    between atoms: _394  and  _395
REMARK  143  A    between atoms: _394  and  _397
REMARK  144  A    between atoms: _400  and  _402
REMARK  145  A    between atoms: _402  and  _403
REMARK  146  A    between atoms: _402  and  _405
REMARK  147  A    between atoms: _405  and  _406
REMARK  148  A    between atoms: _416  and  _418
REMARK  149  A    between atoms: _418  and  _419
REMARK  150  A    between atoms: _418  and  _421
REMARK  151  A    between atoms: _421  and  _422
REMARK  152  A    between atoms: _427  and  _429
REMARK  153  A    between atoms: _429  and  _430
REMARK  154  A    between atoms: _429  and  _432
REMARK  155  A    between atoms: _432  and  _433
REMARK  156  A    between atoms: _433  and  _434
REMARK  157  A    between atoms: _434  and  _435
REMARK                            x       y       z     vdW  Elec       q    Type
REMARK                         _______ _______ _______ _____ _____    ______ ____
ROOT
ATOM      1  CA  ALA A   1     -26.554   1.071 -17.673  0.00  0.00    +0.133 C 
ATOM      2  CB  ALA A   1     -25.815   1.098 -16.346  0.00  0.00    +0.027 C 
ENDROOT
BRANCH   1   3
ATOM      3  N   ALA A   1     -27.523   2.166 -17.715  0.00  0.00    -0.239 NA
ATOM      4  H   ALA A   1     -27.546   2.844 -16.927  0.00  0.00    +0.142 HD
ENDBRANCH   1   3
BRANCH   1   5
ATOM      5  C   ALA A   1     -27.076  -0.343 -17.938  0.00  0.00    +0.224 C 
ATOM      6  O   ALA A   1     -26.324  -1.199 -18.405  0.00  0.00    -0.287 OA
ENDBRANCH   1   5
TORSDOF 2
REMARK  Name = ../refined-set-2016/2nmx/2nmx_pocket.pdb
REMARK  157 active torsions:
REMARK  status: ('A' for Active; 'I' for Inactive)
REMARK    1  A    between atoms: _1  and  _3
REMARK    2  A    between atoms: _3  and  _4
REMARK    3  A    between atoms: _3  and  _6
REMARK    4  A    between atoms: _6  and  _7
REMARK    5  A    between atoms: _17  and  _19
REMARK    6  A    between atoms: _19  and  _20
REMARK    7  A    between atoms: _19  and  _22
REMARK    8  A    between atoms: _22  and  _23
REMARK    9  A    between atoms: _28  and  _29
REMARK   10  A    between atoms: _31  and  _33
REMARK   11  A    between atoms: _33  and  _34
REMARK   12  A    between atoms: _33  and  _36
REMARK   13  A    between atoms: _36  and  _37
REMARK   14  A    between atoms: _40  and  _41
REMARK   15  A    between atoms: _46  and  _48
REMARK   16  A    between atoms: _48  and  _49
REMARK   17  A    between atoms: _48  and  _51
REMARK   18  A    between atoms: _54  and  _56
REMARK   19  A    between atoms: _56  and  _57
REMARK   20  A    between atoms: _56  and  _59
REMARK   21  A    between atoms: _59  and  _60
REMARK   22  A    between atoms: _65  and  _67
REMARK   23  A    between atoms: _67  and  _68
REMARK   24  A    between atoms: _67  and  _70
REMARK   25  A    between atoms: _70  and  _71
REMARK   26  A    between atoms: _73  and  _75
REMARK   27  A    between atoms: _75  and  _76
REMARK   28  A    between atoms: _75  and  _78
REMARK   29  A    between atoms: _78  and  _79
REMARK   30  A    between atoms: _84  and  _86
REMARK   31  A    between atoms: _86  and  _87
REMARK   32  A    between atoms: _86  and  _89
REMARK   33  A    between atoms: _89  and  _90
REMARK   34  A    between atoms: _95  and  _97
REMARK   35  A    between atoms: _97  and  _98
REMARK   36  A    between atoms: _97  and  _100
REMARK   37  A    between atoms: _100  and  _101
REMARK   38  A    between atoms: _107  and  _109
REMARK   39  A    between atoms: _109  and  _110
REMARK   40  A    between atoms: _109  and  _112
REMARK   41  A    between atoms: _112  and  _113
REMARK   42  A    between atoms: _119  and  _121
REMARK   43  A    between atoms: _121  and  _122
REMARK   44  A    between atoms: _121  and  _124
REMARK   45  A    between atoms: _124  and  _125
REMARK   46  A    between atoms: _125  and  _126
REMARK   47  A    between atoms: _131  and  _133
REMARK   48  A    between atoms: _133  and  _134
REMARK   49  A    between atoms: _133  and  _136
REMARK   50  A    between atoms: _136  and  _137
REMARK   51  A    between atoms: _143  and  _145
REMARK   52  A    between atoms: _156  and  _159
REMARK   53  A    between atoms: _159  and  _160
REMARK   54  A    between atoms: _168  and  _169
REMARK   55  A    between atoms: _177  and  _179
REMARK   56  A    between atoms: _179  and  _180
REMARK   57  A    between atoms: _179  and  _182
REMARK   58  A    between atoms: _182  and  _183
REMARK   59  A    between atoms: _183  and  _184
REMARK   60  A    between atoms: _187  and  _189
REMARK   61  A    between atoms: _189  and  _190
REMARK   62  A    between atoms: _189  and  _192
REMARK   63  A    between atoms: _192  and  _193
REMARK   64  A    between atoms: _198  and  _200
REMARK   65  A    between atoms: _200  and  _201
REMARK   66  A    between atoms: _200  and  _203
REMARK   67  A    between atoms: _203  and  _204
REMARK   68  A    between atoms: _204  and  _205
REMARK   69  A    between atoms: _208  and  _210
REMARK   70  A    between atoms: _210  and  _211
REMARK   71  A    between atoms: _210  and  _213
REMARK   72  A    between atoms: _213  and  _214
REMARK   73  A    between atoms: _217  and  _219
REMARK   74  A    between atoms: _219  and  _220
REMARK   75  A    between atoms: _219  and  _222
REMARK   76  A    between atoms: _222  and  _223
REMARK   77  A    between atoms: _224  and  ZN_444
REMARK   78  A    between atoms: _228  and  _230
REMARK   79  A    between atoms: _230  and  _231
REMARK   80  A    between atoms: _230  and  _233
REMARK   81  A    between atoms: _236  and  _238
REMARK   82  A    between atoms: _238  and  _239
REMARK   83  A    between atoms: _242  and  _244
REMARK   84  A    between atoms: _244  and  _245
REMARK   85  A    between atoms: _244  and  _247
REMARK   86  A    between atoms: _247  and  _248
REMARK   87  A    between atoms: _253  and  _255
REMARK   88  A    between atoms: _255  and  _256
REMARK   89  A    between atoms: _255  and  _258
REMARK   90  A    between atoms: _258  and  _259
REMARK   91  A    between atoms: _262  and  _264
REMARK   92  A    between atoms: _264  and  _265
REMARK   93  A    between atoms: _268  and  _270
REMARK   94  A    between atoms: _270  and  _271
REMARK   95  A    between atoms: _270  and  _273
REMARK   96  A    between atoms: _273  and  _274
REMARK   97  A    between atoms: _277  and  _279
REMARK   98  A    between atoms: _279  and  _280
REMARK   99  A    between atoms: _283  and  _285
REMARK  100  A    between atoms: _285  and  _286
REMARK  101  A    between atoms: _285  and  _288
REMARK  102  A    between atoms: _291  and  _293
REMARK  103  A    between atoms: _293  and  _294
REMARK  104  A    between atoms: _293  and  _296
REMARK  105  A    between atoms: _296  and  _297
REMARK  106  A    between atoms: _300  and  _302
REMARK  107  A    between atoms: _302  and  _303
REMARK  108  A    between atoms: _305  and  _307
REMARK  109  A    between atoms: _307  and  _308
REMARK  110  A    between atoms: _310  and  _312
REMARK  111  A    between atoms: _312  and  _313
REMARK  112  A    between atoms: _312  and  _315
REMARK  113  A    between atoms: _315  and  _316
REMARK  114  A    between atoms: _318  and  _320
REMARK  115  A    between atoms: _320  and  _321
REMARK  116  A    between atoms: _320  and  _323
REMARK  117  A    between atoms: _323  and  _324
REMARK  118  A    between atoms: _327  and  _329
REMARK  119  A    between atoms: _329  and  _330
REMARK  120  A    between atoms: _329  and  _332
REMARK  121  A    between atoms: _332  and  _333
REMARK  122  A    between atoms: _336  and  _338
REMARK  123  A    between atoms: _338  and  _339
REMARK  124  A    between atoms: _338  and  _341
REMARK  125  A    between atoms: _341  and  _342
REMARK  126  A    between atoms: _348  and  _349
REMARK  127  A    between atoms: _355  and  _356
REMARK  128  A    between atoms: _361  and  _363
REMARK  129  A    between atoms: _363  and  _364
REMARK  130  A    between atoms: _363  and  _366
REMARK  131  A    between atoms: _366  and  _367
REMARK  132  A    between atoms: _370  and  _372
REMARK  133  A    between atoms: _372  and  _373
REMARK  134  A    between atoms: _372  and  _375
REMARK  135  A    between atoms: _375  and  _376
REMARK  136  A    between atoms: _381  and  _382
REMARK  137  A    between atoms: _384  and  _386
REMARK  138  A    between atoms: _386  and  _387
REMARK  139  A    between atoms: _386  and  _389
REMARK  140  A    between atoms: _389  and  _390
REMARK  141  A    between atoms: _392  and  _394
REMARK  142  A    between atoms: _394  and  _395
REMARK  143  A    between atoms: _394  and  _397
REMARK  144  A    between atoms: _400  and  _402
REMARK  145  A    between atoms: _402  and  _403
REMARK  146  A    between atoms: _402  and  _405
REMARK  147  A    between atoms: _405  and  _406
REMARK  148  A    between atoms: _416  and  _418
REMARK  149  A    between atoms: _418  and  _419
REMARK  150  A    between atoms: _418  and  _421
REMARK  151  A    between atoms: _421  and  _422
REMARK  152  A    between atoms: _427  and  _429
REMARK  153  A    between atoms: _429  and  _430
REMARK  154  A    between atoms: _429  and  _432
REMARK  155  A    between atoms: _432  and  _433
REMARK  156  A    between atoms: _433  and  _434
REMARK  157  A    between atoms: _434  and  _435
REMARK                            x       y       z     vdW  Elec       q    Type
REMARK                         _______ _______ _______ _____ _____    ______ ____
ROOT
ATOM      1  CA  VAL A   3     -18.524   3.177 -25.935  0.00  0.00    +0.149 C 
ENDROOT
BRANCH   1   4
ATOM      2  C   ALA A   2     -20.808   3.953 -25.796  0.00  0.00    +0.241 C 
ATOM      3  O   ALA A   2     -20.481   4.896 -25.072  0.00  0.00    -0.273 OA
ATOM      4  N   VAL A   3     -19.935   3.067 -26.261  0.00  0.00    -0.297 N 
ATOM      5  H   VAL A   3     -20.265   2.287 -26.864  0.00  0.00    +0.150 HD
BRANCH   2   6
ATOM      6  CA  ALA A   2     -22.266   3.749 -26.184  0.00  0.00    +0.149 C 
ATOM      7  CB  ALA A   2     -22.748   4.911 -27.036  0.00  0.00    +0.031 C 
BRANCH   6   9
ATOM      8  C   LEU A   1     -24.016   2.827 -24.749  0.00  0.00    +0.238 C 
ATOM      9  N   ALA A   2     -23.022   3.686 -24.942  0.00  0.00    -0.297 N 
ATOM     10  H   ALA A   2     -22.773   4.341 -24.174  0.00  0.00    +0.150 HD
ATOM     11  O   LEU A   1     -24.396   2.020 -25.599  0.00  0.00    -0.274 OA
BRANCH   8  12
ATOM     12  CA  LEU A   1     -24.665   2.899 -23.376  0.00  0.00    +0.145 C 
BRANCH  12  13
ATOM     13  N   LEU A   1     -26.032   2.392 -23.315  0.00  0.00    -0.238 NA
ATOM     14  H   LEU A   1     -26.240   1.420 -23.623  0.00  0.00    +0.142 HD
ENDBRANCH  12  13
BRANCH  12  15
ATOM     15  CB  LEU A   1     -23.786   2.144 -22.377  0.00  0.00    +0.026 C 
BRANCH  15  16
ATOM     16  CG  LEU A   1     -24.318   1.993 -20.951  0.00  0.00    +0.002 C 
ATOM     17  CD2 LEU A   1     -23.390   1.074 -20.173  0.00  0.00    +0.000 C 
ATOM     18  CD1 LEU A   1     -24.435   3.354 -20.276  0.00  0.00    +0.000 C 
ENDBRANCH  15  16
ENDBRANCH  12  15
ENDBRANCH   8  12
ENDBRANCH   6   9
ENDBRANCH   2   6
ENDBRANCH   1   4
BRANCH   1  19
ATOM     19  C   VAL A   3     -17.657   3.158 -27.183  0.00  0.00    +0.241 C 
ATOM     20  N   ILE A   4     -16.770   4.141 -27.283  0.00  0.00    -0.297 N 
ATOM     21  H   ILE A   4     -16.737   4.872 -26.544  0.00  0.00    +0.150 HD
ATOM     22  O   VAL A   3     -17.804   2.289 -28.045  0.00  0.00    -0.273 OA
BRANCH  20  23
ATOM     23  CA  ILE A   4     -15.845   4.220 -28.399  0.00  0.00    +0.149 C 
BRANCH  23  24
ATOM     24  C   ILE A   4     -14.573   3.515 -27.959  0.00  0.00    +0.241 C 
ATOM     25  O   ILE A   4     -14.001   3.844 -26.920  0.00  0.00    -0.273 OA
ATOM     26  N   GLY A   5     -14.138   2.536 -28.741  0.00  0.00    -0.296 N 
ATOM     27  H   GLY A   5     -14.667   2.282 -29.600  0.00  0.00    +0.150 HD
BRANCH  26  28
ATOM     28  CA  GLY A   5     -12.927   1.821 -28.399  0.00  0.00    +0.163 C 
BRANCH  28  29
ATOM     29  C   GLY A   5     -11.825   2.153 -29.381  0.00  0.00    +0.229 C 
ATOM     30  O   GLY A   5     -12.041   2.141 -30.594  0.00  0.00    -0.286 OA
ENDBRANCH  28  29
ENDBRANCH  26  28
ENDBRANCH  23  24
BRANCH  23  31
ATOM     31  CB  ILE A   4     -15.492   5.673 -28.747  0.00  0.00    +0.027 C 
ATOM     32  CG2 ILE A   4     -14.449   5.697 -29.857  0.00  0.00    +0.002 C 
BRANCH  31  33
ATOM     33  CG1 ILE A   4     -16.749   6.426 -29.180  0.00  0.00    +0.002 C 
ATOM     34  CD1 ILE A   4     -16.532   7.913 -29.374  0.00  0.00    +0.000 C 
ENDBRANCH  31  33
ENDBRANCH  23  31
ENDBRANCH  20  23
ENDBRANCH   1  19
BRANCH   1  35
ATOM     35  CB  VAL A   3     -18.068   2.024 -25.012  0.00  0.00    +0.027 C 
ATOM     36  CG2 VAL A   3     -18.985   1.935 -23.799  0.00  0.00    +0.002 C 
ATOM     37  CG1 VAL A   3     -16.622   2.244 -24.580  0.00  0.00    +0.002 C 
ENDBRANCH   1  35
TORSDOF 15
REMARK  Name = ../refined-set-2016/2nmx/2nmx_pocket.pdb
REMARK  157 active torsions:
REMARK  status: ('A' for Active; 'I' for Inactive)
REMARK    1  A    between atoms: _1  and  _3
REMARK    2  A    between atoms: _3  and  _4
REMARK    3  A    between atoms: _3  and  _6
REMARK    4  A    between atoms: _6  and  _7
REMARK    5  A    between atoms: _17  and  _19
REMARK    6  A    between atoms: _19  and  _20
REMARK    7  A    between atoms: _19  and  _22
REMARK    8  A    between atoms: _22  and  _23
REMARK    9  A    between atoms: _28  and  _29
REMARK   10  A    between atoms: _31  and  _33
REMARK   11  A    between atoms: _33  and  _34
REMARK   12  A    between atoms: _33  and  _36
REMARK   13  A    between atoms: _36  and  _37
REMARK   14  A    between atoms: _40  and  _41
REMARK   15  A    between atoms: _46  and  _48
REMARK   16  A    between atoms: _48  and  _49
REMARK   17  A    between atoms: _48  and  _51
REMARK   18  A    between atoms: _54  and  _56
REMARK   19  A    between atoms: _56  and  _57
REMARK   20  A    between atoms: _56  and  _59
REMARK   21  A    between atoms: _59  and  _60
REMARK   22  A    between atoms: _65  and  _67
REMARK   23  A    between atoms: _67  and  _68
REMARK   24  A    between atoms: _67  and  _70
REMARK   25  A    between atoms: _70  and  _71
REMARK   26  A    between atoms: _73  and  _75
REMARK   27  A    between atoms: _75  and  _76
REMARK   28  A    between atoms: _75  and  _78
REMARK   29  A    between atoms: _78  and  _79
REMARK   30  A    between atoms: _84  and  _86
REMARK   31  A    between atoms: _86  and  _87
REMARK   32  A    between atoms: _86  and  _89
REMARK   33  A    between atoms: _89  and  _90
REMARK   34  A    between atoms: _95  and  _97
REMARK   35  A    between atoms: _97  and  _98
REMARK   36  A    between atoms: _97  and  _100
REMARK   37  A    between atoms: _100  and  _101
REMARK   38  A    between atoms: _107  and  _109
REMARK   39  A    between atoms: _109  and  _110
REMARK   40  A    between atoms: _109  and  _112
REMARK   41  A    between atoms: _112  and  _113
REMARK   42  A    between atoms: _119  and  _121
REMARK   43  A    between atoms: _121  and  _122
REMARK   44  A    between atoms: _121  and  _124
REMARK   45  A    between atoms: _124  and  _125
REMARK   46  A    between atoms: _125  and  _126
REMARK   47  A    between atoms: _131  and  _133
REMARK   48  A    between atoms: _133  and  _134
REMARK   49  A    between atoms: _133  and  _136
REMARK   50  A    between atoms: _136  and  _137
REMARK   51  A    between atoms: _143  and  _145
REMARK   52  A    between atoms: _156  and  _159
REMARK   53  A    between atoms: _159  and  _160
REMARK   54  A    between atoms: _168  and  _169
REMARK   55  A    between atoms: _177  and  _179
REMARK   56  A    between atoms: _179  and  _180
REMARK   57  A    between atoms: _179  and  _182
REMARK   58  A    between atoms: _182  and  _183
REMARK   59  A    between atoms: _183  and  _184
REMARK   60  A    between atoms: _187  and  _189
REMARK   61  A    between atoms: _189  and  _190
REMARK   62  A    between atoms: _189  and  _192
REMARK   63  A    between atoms: _192  and  _193
REMARK   64  A    between atoms: _198  and  _200
REMARK   65  A    between atoms: _200  and  _201
REMARK   66  A    between atoms: _200  and  _203
REMARK   67  A    between atoms: _203  and  _204
REMARK   68  A    between atoms: _204  and  _205
REMARK   69  A    between atoms: _208  and  _210
REMARK   70  A    between atoms: _210  and  _211
REMARK   71  A    between atoms: _210  and  _213
REMARK   72  A    between atoms: _213  and  _214
REMARK   73  A    between atoms: _217  and  _219
REMARK   74  A    between atoms: _219  and  _220
REMARK   75  A    between atoms: _219  and  _222
REMARK   76  A    between atoms: _222  and  _223
REMARK   77  A    between atoms: _224  and  ZN_444
REMARK   78  A    between atoms: _228  and  _230
REMARK   79  A    between atoms: _230  and  _231
REMARK   80  A    between atoms: _230  and  _233
REMARK   81  A    between atoms: _236  and  _238
REMARK   82  A    between atoms: _238  and  _239
REMARK   83  A    between atoms: _242  and  _244
REMARK   84  A    between atoms: _244  and  _245
REMARK   85  A    between atoms: _244  and  _247
REMARK   86  A    between atoms: _247  and  _248
REMARK   87  A    between atoms: _253  and  _255
REMARK   88  A    between atoms: _255  and  _256
REMARK   89  A    between atoms: _255  and  _258
REMARK   90  A    between atoms: _258  and  _259
REMARK   91  A    between atoms: _262  and  _264
REMARK   92  A    between atoms: _264  and  _265
REMARK   93  A    between atoms: _268  and  _270
REMARK   94  A    between atoms: _270  and  _271
REMARK   95  A    between atoms: _270  and  _273
REMARK   96  A    between atoms: _273  and  _274
REMARK   97  A    between atoms: _277  and  _279
REMARK   98  A    between atoms: _279  and  _280
REMARK   99  A    between atoms: _283  and  _285
REMARK  100  A    between atoms: _285  and  _286
REMARK  101  A    between atoms: _285  and  _288
REMARK  102  A    between atoms: _291  and  _293
REMARK  103  A    between atoms: _293  and  _294
REMARK  104  A    between atoms: _293  and  _296
REMARK  105  A    between atoms: _296  and  _297
REMARK  106  A    between atoms: _300  and  _302
REMARK  107  A    between atoms: _302  and  _303
REMARK  108  A    between atoms: _305  and  _307
REMARK  109  A    between atoms: _307  and  _308
REMARK  110  A    between atoms: _310  and  _312
REMARK  111  A    between atoms: _312  and  _313
REMARK  112  A    between atoms: _312  and  _315
REMARK  113  A    between atoms: _315  and  _316
REMARK  114  A    between atoms: _318  and  _320
REMARK  115  A    between atoms: _320  and  _321
REMARK  116  A    between atoms: _320  and  _323
REMARK  117  A    between atoms: _323  and  _324
REMARK  118  A    between atoms: _327  and  _329
REMARK  119  A    between atoms: _329  and  _330
REMARK  120  A    between atoms: _329  and  _332
REMARK  121  A    between atoms: _332  and  _333
REMARK  122  A    between atoms: _336  and  _338
REMARK  123  A    between atoms: _338  and  _339
REMARK  124  A    between atoms: _338  and  _341
REMARK  125  A    between atoms: _341  and  _342
REMARK  126  A    between atoms: _348  and  _349
REMARK  127  A    between atoms: _355  and  _356
REMARK  128  A    between atoms: _361  and  _363
REMARK  129  A    between atoms: _363  and  _364
REMARK  130  A    between atoms: _363  and  _366
REMARK  131  A    between atoms: _366  and  _367
REMARK  132  A    between atoms: _370  and  _372
REMARK  133  A    between atoms: _372  and  _373
REMARK  134  A    between atoms: _372  and  _375
REMARK  135  A    between atoms: _375  and  _376
REMARK  136  A    between atoms: _381  and  _382
REMARK  137  A    between atoms: _384  and  _386
REMARK  138  A    between atoms: _386  and  _387
REMARK  139  A    between atoms: _386  and  _389
REMARK  140  A    between atoms: _389  and  _390
REMARK  141  A    between atoms: _392  and  _394
REMARK  142  A    between atoms: _394  and  _395
REMARK  143  A    between atoms: _394  and  _397
REMARK  144  A    between atoms: _400  and  _402
REMARK  145  A    between atoms: _402  and  _403
REMARK  146  A    between atoms: _402  and  _405
REMARK  147  A    between atoms: _405  and  _406
REMARK  148  A    between atoms: _416  and  _418
REMARK  149  A    between atoms: _418  and  _419
REMARK  150  A    between atoms: _418  and  _421
REMARK  151  A    between atoms: _421  and  _422
REMARK  152  A    between atoms: _427  and  _429
REMARK  153  A    between atoms: _429  and  _430
REMARK  154  A    between atoms: _429  and  _432
REMARK  155  A    between atoms: _432  and  _433
REMARK  156  A    between atoms: _433  and  _434
REMARK  157  A    between atoms: _434  and  _435
REMARK                            x       y       z     vdW  Elec       q    Type
REMARK                         _______ _______ _______ _____ _____    ______ ____
ROOT
ATOM      1  CA  HIS A   5     -16.245  -6.537 -16.845  0.00  0.00    +0.155 C 
ENDROOT
BRANCH   1   2
ATOM      2  C   HIS A   5     -17.508  -6.385 -16.002  0.00  0.00    +0.244 C 
ATOM      3  N   PRO A   6     -17.614  -7.135 -14.890  0.00  0.00    -0.272 N 
ATOM      4  CA  PRO A   6     -18.808  -7.036 -14.046  0.00  0.00    +0.152 C 
ATOM      5  CB  PRO A   6     -18.367  -7.717 -12.755  0.00  0.00    +0.031 C 
ATOM      6  CG  PRO A   6     -17.467  -8.810 -13.273  0.00  0.00    +0.024 C 
ATOM      7  CD  PRO A   6     -16.635  -8.070 -14.304  0.00  0.00    +0.094 C 
ATOM      8  O   HIS A   5     -18.407  -5.621 -16.361  0.00  0.00    -0.273 OA
BRANCH   4   9
ATOM      9  C   PRO A   6     -19.253  -5.591 -13.838  0.00  0.00    +0.244 C 
ATOM     10  O   PRO A   6     -18.422  -4.695 -13.670  0.00  0.00    -0.273 OA
ATOM     11  N   PRO A   7     -20.576  -5.345 -13.827  0.00  0.00    -0.272 N 
ATOM     12  CD  PRO A   7     -21.070  -3.989 -13.531  0.00  0.00    +0.094 C 
ATOM     13  CG  PRO A   7     -22.514  -4.070 -13.973  0.00  0.00    +0.024 C 
ATOM     14  CB  PRO A   7     -22.895  -5.440 -13.526  0.00  0.00    +0.031 C 
ATOM     15  CA  PRO A   7     -21.704  -6.277 -13.980  0.00  0.00    +0.152 C 
BRANCH  15  16
ATOM     16  C   PRO A   7     -21.940  -6.918 -15.355  0.00  0.00    +0.241 C 
ATOM     17  O   PRO A   7     -22.871  -7.708 -15.513  0.00  0.00    -0.273 OA
ATOM     18  N   LEU A   8     -21.125  -6.570 -16.346  0.00  0.00    -0.297 N 
ATOM     19  H   LEU A   8     -20.381  -5.865 -16.168  0.00  0.00    +0.150 HD
BRANCH  18  20
ATOM     20  CA  LEU A   8     -21.249  -7.156 -17.685  0.00  0.00    +0.149 C 
BRANCH  20  21
ATOM     21  C   LEU A   8     -22.590  -6.969 -18.406  0.00  0.00    +0.241 C 
ATOM     22  N   TYR A   9     -23.317  -5.900 -18.096  0.00  0.00    -0.298 N 
ATOM     23  H   TYR A   9     -22.968  -5.226 -17.385  0.00  0.00    +0.150 HD
ATOM     24  O   LEU A   8     -22.957  -7.791 -19.250  0.00  0.00    -0.273 OA
BRANCH  22  25
ATOM     25  CA  TYR A   9     -24.604  -5.667 -18.748  0.00  0.00    +0.141 C 
BRANCH  25  26
ATOM     26  C   TYR A   9     -24.476  -5.591 -20.266  0.00  0.00    +0.227 C 
ATOM     27  O   TYR A   9     -23.566  -4.945 -20.785  0.00  0.00    -0.286 OA
ENDBRANCH  25  26
BRANCH  25  28
ATOM     28  CB  TYR A   9     -25.242  -4.372 -18.248  0.00  0.00    +0.054 C 
BRANCH  28  29
ATOM     29  CG  TYR A   9     -25.574  -4.368 -16.776  0.00  0.00    -0.020 A 
ATOM     30  CD2 TYR A   9     -25.392  -3.224 -16.007  0.00  0.00    -0.001 A 
ATOM     31  CE2 TYR A   9     -25.736  -3.201 -14.667  0.00  0.00    +0.036 A 
ATOM     32  CZ  TYR A   9     -26.268  -4.331 -14.065  0.00  0.00    +0.134 A 
ATOM     33  CE1 TYR A   9     -26.456  -5.486 -14.807  0.00  0.00    +0.036 A 
ATOM     34  CD1 TYR A   9     -26.110  -5.498 -16.157  0.00  0.00    -0.001 A 
BRANCH  32  35
ATOM     35  OH  TYR A   9     -26.613  -4.299 -12.729  0.00  0.00    -0.506 OA
ATOM     36  HH  TYR A   9     -26.974  -5.181 -12.461  0.00  0.00    +0.292 HD
ENDBRANCH  32  35
ENDBRANCH  28  29
ENDBRANCH  25  28
ENDBRANCH  22  25
ENDBRANCH  20  21
BRANCH  20  37
ATOM     37  CB  LEU A   8     -20.943  -8.654 -17.610  0.00  0.00    +0.029 C 
BRANCH  37  38
ATOM     38  CG  LEU A   8     -19.553  -9.045 -17.106  0.00  0.00    +0.002 C 
ATOM     39  CD2 LEU A   8     -19.550 -10.503 -16.663  0.00  0.00    +0.000 C 
ATOM     40  CD1 LEU A   8     -18.531  -8.805 -18.205  0.00  0.00    +0.000 C 
ENDBRANCH  37  38
ENDBRANCH  20  37
ENDBRANCH  18  20
ENDBRANCH  15  16
ENDBRANCH   4   9
ENDBRANCH   1   2
BRANCH   1  42
ATOM     41  C   THR A   4     -15.878  -6.455 -19.248  0.00  0.00    +0.243 C 
ATOM     42  N   HIS A   5     -16.494  -5.982 -18.169  0.00  0.00    -0.297 N 
ATOM     43  H   HIS A   5     -17.169  -5.198 -18.272  0.00  0.00    +0.150 HD
ATOM     44  O   THR A   4     -15.024  -7.340 -19.195  0.00  0.00    -0.273 OA
BRANCH  41  45
ATOM     45  CA  THR A   4     -16.268  -5.840 -20.587  0.00  0.00    +0.176 C 
BRANCH  45  48
ATOM     46  C   LEU A   3     -18.557  -5.102 -20.494  0.00  0.00    +0.241 C 
ATOM     47  O   LEU A   3     -18.942  -6.274 -20.464  0.00  0.00    -0.273 OA
ATOM     48  N   THR A   4     -17.269  -4.784 -20.529  0.00  0.00    -0.295 N 
ATOM     49  H   THR A   4     -16.976  -3.786 -20.515  0.00  0.00    +0.150 HD
BRANCH  46  50
ATOM     50  CA  LEU A   3     -19.574  -3.958 -20.488  0.00  0.00    +0.149 C 
BRANCH  50  52
ATOM     51  C   SER A   2     -20.538  -4.723 -22.592  0.00  0.00    +0.243 C 
ATOM     52  N   LEU A   3     -20.649  -4.535 -21.279  0.00  0.00    -0.297 N 
ATOM     53  H   LEU A   3     -21.532  -4.809 -20.804  0.00  0.00    +0.150 HD
ATOM     54  O   SER A   2     -19.567  -4.354 -23.256  0.00  0.00    -0.273 OA
BRANCH  51  55
ATOM     55  CA  SER A   2     -21.722  -5.425 -23.241  0.00  0.00    +0.178 C 
BRANCH  55  57
ATOM     56  C   GLY A   1     -22.592  -5.535 -25.512  0.00  0.00    +0.240 C 
ATOM     57  N   SER A   2     -21.560  -5.619 -24.677  0.00  0.00    -0.295 N 
ATOM     58  H   SER A   2     -20.615  -5.828 -25.058  0.00  0.00    +0.150 HD
ATOM     59  O   GLY A   1     -23.736  -5.257 -25.146  0.00  0.00    -0.274 OA
BRANCH  56  60
ATOM     60  CA  GLY A   1     -22.282  -5.799 -26.972  0.00  0.00    +0.169 C 
BRANCH  60  61
ATOM     61  N   GLY A   1     -23.030  -5.025 -27.946  0.00  0.00    -0.236 NA
ATOM     62  H   GLY A   1     -23.202  -4.012 -27.785  0.00  0.00    +0.142 HD
ENDBRANCH  60  61
ENDBRANCH  56  60
ENDBRANCH  55  57
BRANCH  55  63
ATOM     63  CB  SER A   2     -21.887  -6.784 -22.555  0.00  0.00    +0.166 C 
BRANCH  63  64
ATOM     64  OG  SER A   2     -20.671  -7.528 -22.586  0.00  0.00    -0.380 OA
ATOM     65  H   SER A   2     -19.963  -7.020 -22.116  0.00  0.00    +0.211 HD
ENDBRANCH  63  64
ENDBRANCH  55  63
ENDBRANCH  51  55
ENDBRANCH  50  52
BRANCH  50  66
ATOM     66  CB  LEU A   3     -20.050  -3.675 -19.058  0.00  0.00    +0.029 C 
BRANCH  66  67
ATOM     67  CG  LEU A   3     -21.148  -2.617 -18.880  0.00  0.00    +0.002 C 
ATOM     68  CD2 LEU A   3     -21.559  -2.533 -17.414  0.00  0.00    +0.000 C 
ATOM     69  CD1 LEU A   3     -20.640  -1.268 -19.369  0.00  0.00    +0.000 C 
ENDBRANCH  66  67
ENDBRANCH  50  66
ENDBRANCH  46  50
ENDBRANCH  45  48
BRANCH  45  70
ATOM     70  CB  THR A   4     -15.012  -5.363 -21.332  0.00  0.00    +0.137 C 
ATOM     71  CG2 THR A   4     -15.381  -4.940 -22.758  0.00  0.00    +0.034 C 
BRANCH  70  72
ATOM     72  OG1 THR A   4     -14.430  -4.256 -20.637  0.00  0.00    -0.382 OA
ATOM     73  HG1 THR A   4     -13.621  -3.952 -21.121  0.00  0.00    +0.210 HD
ENDBRANCH  70  72
ENDBRANCH  45  70
ENDBRANCH  41  45
ENDBRANCH   1  42
BRANCH   1  74
ATOM     74  CB  HIS A   5     -15.013  -5.889 -16.174  0.00  0.00    +0.076 C 
BRANCH  74  75
ATOM     75  CG  HIS A   5     -15.124  -4.415 -15.931  0.00  0.00    +0.082 A 
ATOM     76  ND1 HIS A   5     -16.015  -3.867 -15.035  0.00  0.00    -0.227 NA
ATOM     77  CE1 HIS A   5     -15.814  -2.565 -14.956  0.00  0.00    +0.199 A 
ATOM     78  NE2 HIS A   5     -14.826  -2.245 -15.773  0.00  0.00    -0.221 NA
ATOM     79  CD2 HIS A   5     -14.379  -3.383 -16.399  0.00  0.00    +0.115 A 
ENDBRANCH  74  75
ENDBRANCH   1  74
TORSDOF 29
REMARK  Name = ../refined-set-2016/2nmx/2nmx_pocket.pdb
REMARK  157 active torsions:
REMARK  status: ('A' for Active; 'I' for Inactive)
REMARK    1  A    between atoms: _1  and  _3
REMARK    2  A    between atoms: _3  and  _4
REMARK    3  A    between atoms: _3  and  _6
REMARK    4  A    between atoms: _6  and  _7
REMARK    5  A    between atoms: _17  and  _19
REMARK    6  A    between atoms: _19  and  _20
REMARK    7  A    between atoms: _19  and  _22
REMARK    8  A    between atoms: _22  and  _23
REMARK    9  A    between atoms: _28  and  _29
REMARK   10  A    between atoms: _31  and  _33
REMARK   11  A    between atoms: _33  and  _34
REMARK   12  A    between atoms: _33  and  _36
REMARK   13  A    between atoms: _36  and  _37
REMARK   14  A    between atoms: _40  and  _41
REMARK   15  A    between atoms: _46  and  _48
REMARK   16  A    between atoms: _48  and  _49
REMARK   17  A    between atoms: _48  and  _51
REMARK   18  A    between atoms: _54  and  _56
REMARK   19  A    between atoms: _56  and  _57
REMARK   20  A    between atoms: _56  and  _59
REMARK   21  A    between atoms: _59  and  _60
REMARK   22  A    between atoms: _65  and  _67
REMARK   23  A    between atoms: _67  and  _68
REMARK   24  A    between atoms: _67  and  _70
REMARK   25  A    between atoms: _70  and  _71
REMARK   26  A    between atoms: _73  and  _75
REMARK   27  A    between atoms: _75  and  _76
REMARK   28  A    between atoms: _75  and  _78
REMARK   29  A    between atoms: _78  and  _79
REMARK   30  A    between atoms: _84  and  _86
REMARK   31  A    between atoms: _86  and  _87
REMARK   32  A    between atoms: _86  and  _89
REMARK   33  A    between atoms: _89  and  _90
REMARK   34  A    between atoms: _95  and  _97
REMARK   35  A    between atoms: _97  and  _98
REMARK   36  A    between atoms: _97  and  _100
REMARK   37  A    between atoms: _100  and  _101
REMARK   38  A    between atoms: _107  and  _109
REMARK   39  A    between atoms: _109  and  _110
REMARK   40  A    between atoms: _109  and  _112
REMARK   41  A    between atoms: _112  and  _113
REMARK   42  A    between atoms: _119  and  _121
REMARK   43  A    between atoms: _121  and  _122
REMARK   44  A    between atoms: _121  and  _124
REMARK   45  A    between atoms: _124  and  _125
REMARK   46  A    between atoms: _125  and  _126
REMARK   47  A    between atoms: _131  and  _133
REMARK   48  A    between atoms: _133  and  _134
REMARK   49  A    between atoms: _133  and  _136
REMARK   50  A    between atoms: _136  and  _137
REMARK   51  A    between atoms: _143  and  _145
REMARK   52  A    between atoms: _156  and  _159
REMARK   53  A    between atoms: _159  and  _160
REMARK   54  A    between atoms: _168  and  _169
REMARK   55  A    between atoms: _177  and  _179
REMARK   56  A    between atoms: _179  and  _180
REMARK   57  A    between atoms: _179  and  _182
REMARK   58  A    between atoms: _182  and  _183
REMARK   59  A    between atoms: _183  and  _184
REMARK   60  A    between atoms: _187  and  _189
REMARK   61  A    between atoms: _189  and  _190
REMARK   62  A    between atoms: _189  and  _192
REMARK   63  A    between atoms: _192  and  _193
REMARK   64  A    between atoms: _198  and  _200
REMARK   65  A    between atoms: _200  and  _201
REMARK   66  A    between atoms: _200  and  _203
REMARK   67  A    between atoms: _203  and  _204
REMARK   68  A    between atoms: _204  and  _205
REMARK   69  A    between atoms: _208  and  _210
REMARK   70  A    between atoms: _210  and  _211
REMARK   71  A    between atoms: _210  and  _213
REMARK   72  A    between atoms: _213  and  _214
REMARK   73  A    between atoms: _217  and  _219
REMARK   74  A    between atoms: _219  and  _220
REMARK   75  A    between atoms: _219  and  _222
REMARK   76  A    between atoms: _222  and  _223
REMARK   77  A    between atoms: _224  and  ZN_444
REMARK   78  A    between atoms: _228  and  _230
REMARK   79  A    between atoms: _230  and  _231
REMARK   80  A    between atoms: _230  and  _233
REMARK   81  A    between atoms: _236  and  _238
REMARK   82  A    between atoms: _238  and  _239
REMARK   83  A    between atoms: _242  and  _244
REMARK   84  A    between atoms: _244  and  _245
REMARK   85  A    between atoms: _244  and  _247
REMARK   86  A    between atoms: _247  and  _248
REMARK   87  A    between atoms: _253  and  _255
REMARK   88  A    between atoms: _255  and  _256
REMARK   89  A    between atoms: _255  and  _258
REMARK   90  A    between atoms: _258  and  _259
REMARK   91  A    between atoms: _262  and  _264
REMARK   92  A    between atoms: _264  and  _265
REMARK   93  A    between atoms: _268  and  _270
REMARK   94  A    between atoms: _270  and  _271
REMARK   95  A    between atoms: _270  and  _273
REMARK   96  A    between atoms: _273  and  _274
REMARK   97  A    between atoms: _277  and  _279
REMARK   98  A    between atoms: _279  and  _280
REMARK   99  A    between atoms: _283  and  _285
REMARK  100  A    between atoms: _285  and  _286
REMARK  101  A    between atoms: _285  and  _288
REMARK  102  A    between atoms: _291  and  _293
REMARK  103  A    between atoms: _293  and  _294
REMARK  104  A    between atoms: _293  and  _296
REMARK  105  A    between atoms: _296  and  _297
REMARK  106  A    between atoms: _300  and  _302
REMARK  107  A    between atoms: _302  and  _303
REMARK  108  A    between atoms: _305  and  _307
REMARK  109  A    between atoms: _307  and  _308
REMARK  110  A    between atoms: _310  and  _312
REMARK  111  A    between atoms: _312  and  _313
REMARK  112  A    between atoms: _312  and  _315
REMARK  113  A    between atoms: _315  and  _316
REMARK  114  A    between atoms: _318  and  _320
REMARK  115  A    between atoms: _320  and  _321
REMARK  116  A    between atoms: _320  and  _323
REMARK  117  A    between atoms: _323  and  _324
REMARK  118  A    between atoms: _327  and  _329
REMARK  119  A    between atoms: _329  and  _330
REMARK  120  A    between atoms: _329  and  _332
REMARK  121  A    between atoms: _332  and  _333
REMARK  122  A    between atoms: _336  and  _338
REMARK  123  A    between atoms: _338  and  _339
REMARK  124  A    between atoms: _338  and  _341
REMARK  125  A    between atoms: _341  and  _342
REMARK  126  A    between atoms: _348  and  _349
REMARK  127  A    between atoms: _355  and  _356
REMARK  128  A    between atoms: _361  and  _363
REMARK  129  A    between atoms: _363  and  _364
REMARK  130  A    between atoms: _363  and  _366
REMARK  131  A    between atoms: _366  and  _367
REMARK  132  A    between atoms: _370  and  _372
REMARK  133  A    between atoms: _372  and  _373
REMARK  134  A    between atoms: _372  and  _375
REMARK  135  A    between atoms: _375  and  _376
REMARK  136  A    between atoms: _381  and  _382
REMARK  137  A    between atoms: _384  and  _386
REMARK  138  A    between atoms: _386  and  _387
REMARK  139  A    between atoms: _386  and  _389
REMARK  140  A    between atoms: _389  and  _390
REMARK  141  A    between atoms: _392  and  _394
REMARK  142  A    between atoms: _394  and  _395
REMARK  143  A    between atoms: _394  and  _397
REMARK  144  A    between atoms: _400  and  _402
REMARK  145  A    between atoms: _402  and  _403
REMARK  146  A    between atoms: _402  and  _405
REMARK  147  A    between atoms: _405  and  _406
REMARK  148  A    between atoms: _416  and  _418
REMARK  149  A    between atoms: _418  and  _419
REMARK  150  A    between atoms: _418  and  _421
REMARK  151  A    between atoms: _421  and  _422
REMARK  152  A    between atoms: _427  and  _429
REMARK  153  A    between atoms: _429  and  _430
REMARK  154  A    between atoms: _429  and  _432
REMARK  155  A    between atoms: _432  and  _433
REMARK  156  A    between atoms: _433  and  _434
REMARK  157  A    between atoms: _434  and  _435
REMARK                            x       y       z     vdW  Elec       q    Type
REMARK                         _______ _______ _______ _____ _____    ______ ____
ROOT
ATOM      1  C   SER A   1     -25.365  -1.622 -23.650  0.00  0.00    +0.241 C 
ATOM      2  O   SER A   1     -25.647  -0.426 -23.756  0.00  0.00    -0.274 OA
ATOM      3  N   VAL A   2     -24.308  -2.161 -24.242  0.00  0.00    -0.298 N 
ATOM      4  H   VAL A   2     -24.138  -3.185 -24.172  0.00  0.00    +0.150 HD
ENDROOT
BRANCH   1   5
ATOM      5  CA  SER A   1     -26.250  -2.553 -22.829  0.00  0.00    +0.174 C 
BRANCH   5   6
ATOM      6  N   SER A   1     -25.628  -3.844 -22.562  0.00  0.00    -0.236 NA
ATOM      7  H   SER A   1     -24.688  -3.853 -22.117  0.00  0.00    +0.142 HD
ENDBRANCH   5   6
BRANCH   5   8
ATOM      8  CB  SER A   1     -26.552  -1.876 -21.493  0.00  0.00    +0.163 C 
BRANCH   8   9
ATOM      9  OG  SER A   1     -25.363  -1.728 -20.727  0.00  0.00    -0.380 OA
ATOM     10  H   SER A   1     -25.579  -1.288 -19.867  0.00  0.00    +0.211 HD
ENDBRANCH   8   9
ENDBRANCH   5   8
ENDBRANCH   1   5
BRANCH   3  11
ATOM     11  CA  VAL A   2     -23.387  -1.322 -24.989  0.00  0.00    +0.137 C 
BRANCH  11  12
ATOM     12  CB  VAL A   2     -21.927  -1.551 -24.514  0.00  0.00    +0.026 C 
ATOM     13  CG2 VAL A   2     -21.828  -1.352 -23.013  0.00  0.00    +0.002 C 
ATOM     14  CG1 VAL A   2     -20.978  -0.603 -25.241  0.00  0.00    +0.002 C 
ENDBRANCH  11  12
BRANCH  11  15
ATOM     15  C   VAL A   2     -23.382  -1.443 -26.503  0.00  0.00    +0.227 C 
ATOM     16  O   VAL A   2     -23.301  -2.539 -27.053  0.00  0.00    -0.286 OA
ENDBRANCH  11  15
ENDBRANCH   3  11
TORSDOF 7
REMARK  Name = ../refined-set-2016/2nmx/2nmx_pocket.pdb
REMARK  157 active torsions:
REMARK  status: ('A' for Active; 'I' for Inactive)
REMARK    1  A    between atoms: _1  and  _3
REMARK    2  A    between atoms: _3  and  _4
REMARK    3  A    between atoms: _3  and  _6
REMARK    4  A    between atoms: _6  and  _7
REMARK    5  A    between atoms: _17  and  _19
REMARK    6  A    between atoms: _19  and  _20
REMARK    7  A    between atoms: _19  and  _22
REMARK    8  A    between atoms: _22  and  _23
REMARK    9  A    between atoms: _28  and  _29
REMARK   10  A    between atoms: _31  and  _33
REMARK   11  A    between atoms: _33  and  _34
REMARK   12  A    between atoms: _33  and  _36
REMARK   13  A    between atoms: _36  and  _37
REMARK   14  A    between atoms: _40  and  _41
REMARK   15  A    between atoms: _46  and  _48
REMARK   16  A    between atoms: _48  and  _49
REMARK   17  A    between atoms: _48  and  _51
REMARK   18  A    between atoms: _54  and  _56
REMARK   19  A    between atoms: _56  and  _57
REMARK   20  A    between atoms: _56  and  _59
REMARK   21  A    between atoms: _59  and  _60
REMARK   22  A    between atoms: _65  and  _67
REMARK   23  A    between atoms: _67  and  _68
REMARK   24  A    between atoms: _67  and  _70
REMARK   25  A    between atoms: _70  and  _71
REMARK   26  A    between atoms: _73  and  _75
REMARK   27  A    between atoms: _75  and  _76
REMARK   28  A    between atoms: _75  and  _78
REMARK   29  A    between atoms: _78  and  _79
REMARK   30  A    between atoms: _84  and  _86
REMARK   31  A    between atoms: _86  and  _87
REMARK   32  A    between atoms: _86  and  _89
REMARK   33  A    between atoms: _89  and  _90
REMARK   34  A    between atoms: _95  and  _97
REMARK   35  A    between atoms: _97  and  _98
REMARK   36  A    between atoms: _97  and  _100
REMARK   37  A    between atoms: _100  and  _101
REMARK   38  A    between atoms: _107  and  _109
REMARK   39  A    between atoms: _109  and  _110
REMARK   40  A    between atoms: _109  and  _112
REMARK   41  A    between atoms: _112  and  _113
REMARK   42  A    between atoms: _119  and  _121
REMARK   43  A    between atoms: _121  and  _122
REMARK   44  A    between atoms: _121  and  _124
REMARK   45  A    between atoms: _124  and  _125
REMARK   46  A    between atoms: _125  and  _126
REMARK   47  A    between atoms: _131  and  _133
REMARK   48  A    between atoms: _133  and  _134
REMARK   49  A    between atoms: _133  and  _136
REMARK   50  A    between atoms: _136  and  _137
REMARK   51  A    between atoms: _143  and  _145
REMARK   52  A    between atoms: _156  and  _159
REMARK   53  A    between atoms: _159  and  _160
REMARK   54  A    between atoms: _168  and  _169
REMARK   55  A    between atoms: _177  and  _179
REMARK   56  A    between atoms: _179  and  _180
REMARK   57  A    between atoms: _179  and  _182
REMARK   58  A    between atoms: _182  and  _183
REMARK   59  A    between atoms: _183  and  _184
REMARK   60  A    between atoms: _187  and  _189
REMARK   61  A    between atoms: _189  and  _190
REMARK   62  A    between atoms: _189  and  _192
REMARK   63  A    between atoms: _192  and  _193
REMARK   64  A    between atoms: _198  and  _200
REMARK   65  A    between atoms: _200  and  _201
REMARK   66  A    between atoms: _200  and  _203
REMARK   67  A    between atoms: _203  and  _204
REMARK   68  A    between atoms: _204  and  _205
REMARK   69  A    between atoms: _208  and  _210
REMARK   70  A    between atoms: _210  and  _211
REMARK   71  A    between atoms: _210  and  _213
REMARK   72  A    between atoms: _213  and  _214
REMARK   73  A    between atoms: _217  and  _219
REMARK   74  A    between atoms: _219  and  _220
REMARK   75  A    between atoms: _219  and  _222
REMARK   76  A    between atoms: _222  and  _223
REMARK   77  A    between atoms: _224  and  ZN_444
REMARK   78  A    between atoms: _228  and  _230
REMARK   79  A    between atoms: _230  and  _231
REMARK   80  A    between atoms: _230  and  _233
REMARK   81  A    between atoms: _236  and  _238
REMARK   82  A    between atoms: _238  and  _239
REMARK   83  A    between atoms: _242  and  _244
REMARK   84  A    between atoms: _244  and  _245
REMARK   85  A    between atoms: _244  and  _247
REMARK   86  A    between atoms: _247  and  _248
REMARK   87  A    between atoms: _253  and  _255
REMARK   88  A    between atoms: _255  and  _256
REMARK   89  A    between atoms: _255  and  _258
REMARK   90  A    between atoms: _258  and  _259
REMARK   91  A    between atoms: _262  and  _264
REMARK   92  A    between atoms: _264  and  _265
REMARK   93  A    between atoms: _268  and  _270
REMARK   94  A    between atoms: _270  and  _271
REMARK   95  A    between atoms: _270  and  _273
REMARK   96  A    between atoms: _273  and  _274
REMARK   97  A    between atoms: _277  and  _279
REMARK   98  A    between atoms: _279  and  _280
REMARK   99  A    between atoms: _283  and  _285
REMARK  100  A    between atoms: _285  and  _286
REMARK  101  A    between atoms: _285  and  _288
REMARK  102  A    between atoms: _291  and  _293
REMARK  103  A    between atoms: _293  and  _294
REMARK  104  A    between atoms: _293  and  _296
REMARK  105  A    between atoms: _296  and  _297
REMARK  106  A    between atoms: _300  and  _302
REMARK  107  A    between atoms: _302  and  _303
REMARK  108  A    between atoms: _305  and  _307
REMARK  109  A    between atoms: _307  and  _308
REMARK  110  A    between atoms: _310  and  _312
REMARK  111  A    between atoms: _312  and  _313
REMARK  112  A    between atoms: _312  and  _315
REMARK  113  A    between atoms: _315  and  _316
REMARK  114  A    between atoms: _318  and  _320
REMARK  115  A    between atoms: _320  and  _321
REMARK  116  A    between atoms: _320  and  _323
REMARK  117  A    between atoms: _323  and  _324
REMARK  118  A    between atoms: _327  and  _329
REMARK  119  A    between atoms: _329  and  _330
REMARK  120  A    between atoms: _329  and  _332
REMARK  121  A    between atoms: _332  and  _333
REMARK  122  A    between atoms: _336  and  _338
REMARK  123  A    between atoms: _338  and  _339
REMARK  124  A    between atoms: _338  and  _341
REMARK  125  A    between atoms: _341  and  _342
REMARK  126  A    between atoms: _348  and  _349
REMARK  127  A    between atoms: _355  and  _356
REMARK  128  A    between atoms: _361  and  _363
REMARK  129  A    between atoms: _363  and  _364
REMARK  130  A    between atoms: _363  and  _366
REMARK  131  A    between atoms: _366  and  _367
REMARK  132  A    between atoms: _370  and  _372
REMARK  133  A    between atoms: _372  and  _373
REMARK  134  A    between atoms: _372  and  _375
REMARK  135  A    between atoms: _375  and  _376
REMARK  136  A    between atoms: _381  and  _382
REMARK  137  A    between atoms: _384  and  _386
REMARK  138  A    between atoms: _386  and  _387
REMARK  139  A    between atoms: _386  and  _389
REMARK  140  A    between atoms: _389  and  _390
REMARK  141  A    between atoms: _392  and  _394
REMARK  142  A    between atoms: _394  and  _395
REMARK  143  A    between atoms: _394  and  _397
REMARK  144  A    between atoms: _400  and  _402
REMARK  145  A    between atoms: _402  and  _403
REMARK  146  A    between atoms: _402  and  _405
REMARK  147  A    between atoms: _405  and  _406
REMARK  148  A    between atoms: _416  and  _418
REMARK  149  A    between atoms: _418  and  _419
REMARK  150  A    between atoms: _418  and  _421
REMARK  151  A    between atoms: _421  and  _422
REMARK  152  A    between atoms: _427  and  _429
REMARK  153  A    between atoms: _429  and  _430
REMARK  154  A    between atoms: _429  and  _432
REMARK  155  A    between atoms: _432  and  _433
REMARK  156  A    between atoms: _433  and  _434
REMARK  157  A    between atoms: _434  and  _435
REMARK                            x       y       z     vdW  Elec       q    Type
REMARK                         _______ _______ _______ _____ _____    ______ ____
ROOT
ATOM      1  CG  TRP A   1     -18.729  -2.240 -27.965  0.00  0.00    -0.002 A 
ATOM      2  CD2 TRP A   1     -17.719  -1.795 -27.054  0.00  0.00    +0.013 A 
ATOM      3  CE2 TRP A   1     -17.956  -2.438 -25.818  0.00  0.00    +0.056 A 
ATOM      4  CZ2 TRP A   1     -17.147  -2.225 -24.695  0.00  0.00    +0.017 A 
ATOM      5  CH2 TRP A   1     -16.093  -1.357 -24.830  0.00  0.00    +0.001 A 
ATOM      6  CZ3 TRP A   1     -15.832  -0.702 -26.046  0.00  0.00    +0.000 A 
ATOM      7  NE1 TRP A   1     -19.060  -3.235 -25.975  0.00  0.00    -0.352 N 
ATOM      8  HE1 TRP A   1     -19.482  -3.836 -25.239  0.00  0.00    +0.166 HD
ATOM      9  CE3 TRP A   1     -16.635  -0.913 -27.161  0.00  0.00    +0.001 A 
ATOM     10  CD1 TRP A   1     -19.519  -3.110 -27.267  0.00  0.00    +0.068 A 
ENDROOT
BRANCH   1  11
ATOM     11  CB  TRP A   1     -18.903  -1.799 -29.385  0.00  0.00    +0.053 C 
BRANCH  11  12
ATOM     12  CA  TRP A   1     -19.716  -0.508 -29.506  0.00  0.00    +0.137 C 
BRANCH  12  13
ATOM     13  N   TRP A   1     -21.130  -0.786 -29.326  0.00  0.00    -0.239 NA
ATOM     14  H   TRP A   1     -21.512  -1.714 -29.598  0.00  0.00    +0.142 HD
ENDBRANCH  12  13
BRANCH  12  15
ATOM     15  C   TRP A   1     -19.358   0.191 -30.799  0.00  0.00    +0.224 C 
ATOM     16  O   TRP A   1     -19.940  -0.071 -31.849  0.00  0.00    -0.287 OA
ENDBRANCH  12  15
ENDBRANCH  11  12
ENDBRANCH   1  11
TORSDOF 4
REMARK  Name = ../refined-set-2016/2nmx/2nmx_pocket.pdb
REMARK  157 active torsions:
REMARK  status: ('A' for Active; 'I' for Inactive)
REMARK    1  A    between atoms: _1  and  _3
REMARK    2  A    between atoms: _3  and  _4
REMARK    3  A    between atoms: _3  and  _6
REMARK    4  A    between atoms: _6  and  _7
REMARK    5  A    between atoms: _17  and  _19
REMARK    6  A    between atoms: _19  and  _20
REMARK    7  A    between atoms: _19  and  _22
REMARK    8  A    between atoms: _22  and  _23
REMARK    9  A    between atoms: _28  and  _29
REMARK   10  A    between atoms: _31  and  _33
REMARK   11  A    between atoms: _33  and  _34
REMARK   12  A    between atoms: _33  and  _36
REMARK   13  A    between atoms: _36  and  _37
REMARK   14  A    between atoms: _40  and  _41
REMARK   15  A    between atoms: _46  and  _48
REMARK   16  A    between atoms: _48  and  _49
REMARK   17  A    between atoms: _48  and  _51
REMARK   18  A    between atoms: _54  and  _56
REMARK   19  A    between atoms: _56  and  _57
REMARK   20  A    between atoms: _56  and  _59
REMARK   21  A    between atoms: _59  and  _60
REMARK   22  A    between atoms: _65  and  _67
REMARK   23  A    between atoms: _67  and  _68
REMARK   24  A    between atoms: _67  and  _70
REMARK   25  A    between atoms: _70  and  _71
REMARK   26  A    between atoms: _73  and  _75
REMARK   27  A    between atoms: _75  and  _76
REMARK   28  A    between atoms: _75  and  _78
REMARK   29  A    between atoms: _78  and  _79
REMARK   30  A    between atoms: _84  and  _86
REMARK   31  A    between atoms: _86  and  _87
REMARK   32  A    between atoms: _86  and  _89
REMARK   33  A    between atoms: _89  and  _90
REMARK   34  A    between atoms: _95  and  _97
REMARK   35  A    between atoms: _97  and  _98
REMARK   36  A    between atoms: _97  and  _100
REMARK   37  A    between atoms: _100  and  _101
REMARK   38  A    between atoms: _107  and  _109
REMARK   39  A    between atoms: _109  and  _110
REMARK   40  A    between atoms: _109  and  _112
REMARK   41  A    between atoms: _112  and  _113
REMARK   42  A    between atoms: _119  and  _121
REMARK   43  A    between atoms: _121  and  _122
REMARK   44  A    between atoms: _121  and  _124
REMARK   45  A    between atoms: _124  and  _125
REMARK   46  A    between atoms: _125  and  _126
REMARK   47  A    between atoms: _131  and  _133
REMARK   48  A    between atoms: _133  and  _134
REMARK   49  A    between atoms: _133  and  _136
REMARK   50  A    between atoms: _136  and  _137
REMARK   51  A    between atoms: _143  and  _145
REMARK   52  A    between atoms: _156  and  _159
REMARK   53  A    between atoms: _159  and  _160
REMARK   54  A    between atoms: _168  and  _169
REMARK   55  A    between atoms: _177  and  _179
REMARK   56  A    between atoms: _179  and  _180
REMARK   57  A    between atoms: _179  and  _182
REMARK   58  A    between atoms: _182  and  _183
REMARK   59  A    between atoms: _183  and  _184
REMARK   60  A    between atoms: _187  and  _189
REMARK   61  A    between atoms: _189  and  _190
REMARK   62  A    between atoms: _189  and  _192
REMARK   63  A    between atoms: _192  and  _193
REMARK   64  A    between atoms: _198  and  _200
REMARK   65  A    between atoms: _200  and  _201
REMARK   66  A    between atoms: _200  and  _203
REMARK   67  A    between atoms: _203  and  _204
REMARK   68  A    between atoms: _204  and  _205
REMARK   69  A    between atoms: _208  and  _210
REMARK   70  A    between atoms: _210  and  _211
REMARK   71  A    between atoms: _210  and  _213
REMARK   72  A    between atoms: _213  and  _214
REMARK   73  A    between atoms: _217  and  _219
REMARK   74  A    between atoms: _219  and  _220
REMARK   75  A    between atoms: _219  and  _222
REMARK   76  A    between atoms: _222  and  _223
REMARK   77  A    between atoms: _224  and  ZN_444
REMARK   78  A    between atoms: _228  and  _230
REMARK   79  A    between atoms: _230  and  _231
REMARK   80  A    between atoms: _230  and  _233
REMARK   81  A    between atoms: _236  and  _238
REMARK   82  A    between atoms: _238  and  _239
REMARK   83  A    between atoms: _242  and  _244
REMARK   84  A    between atoms: _244  and  _245
REMARK   85  A    between atoms: _244  and  _247
REMARK   86  A    between atoms: _247  and  _248
REMARK   87  A    between atoms: _253  and  _255
REMARK   88  A    between atoms: _255  and  _256
REMARK   89  A    between atoms: _255  and  _258
REMARK   90  A    between atoms: _258  and  _259
REMARK   91  A    between atoms: _262  and  _264
REMARK   92  A    between atoms: _264  and  _265
REMARK   93  A    between atoms: _268  and  _270
REMARK   94  A    between atoms: _270  and  _271
REMARK   95  A    between atoms: _270  and  _273
REMARK   96  A    between atoms: _273  and  _274
REMARK   97  A    between atoms: _277  and  _279
REMARK   98  A    between atoms: _279  and  _280
REMARK   99  A    between atoms: _283  and  _285
REMARK  100  A    between atoms: _285  and  _286
REMARK  101  A    between atoms: _285  and  _288
REMARK  102  A    between atoms: _291  and  _293
REMARK  103  A    between atoms: _293  and  _294
REMARK  104  A    between atoms: _293  and  _296
REMARK  105  A    between atoms: _296  and  _297
REMARK  106  A    between atoms: _300  and  _302
REMARK  107  A    between atoms: _302  and  _303
REMARK  108  A    between atoms: _305  and  _307
REMARK  109  A    between atoms: _307  and  _308
REMARK  110  A    between atoms: _310  and  _312
REMARK  111  A    between atoms: _312  and  _313
REMARK  112  A    between atoms: _312  and  _315
REMARK  113  A    between atoms: _315  and  _316
REMARK  114  A    between atoms: _318  and  _320
REMARK  115  A    between atoms: _320  and  _321
REMARK  116  A    between atoms: _320  and  _323
REMARK  117  A    between atoms: _323  and  _324
REMARK  118  A    between atoms: _327  and  _329
REMARK  119  A    between atoms: _329  and  _330
REMARK  120  A    between atoms: _329  and  _332
REMARK  121  A    between atoms: _332  and  _333
REMARK  122  A    between atoms: _336  and  _338
REMARK  123  A    between atoms: _338  and  _339
REMARK  124  A    between atoms: _338  and  _341
REMARK  125  A    between atoms: _341  and  _342
REMARK  126  A    between atoms: _348  and  _349
REMARK  127  A    between atoms: _355  and  _356
REMARK  128  A    between atoms: _361  and  _363
REMARK  129  A    between atoms: _363  and  _364
REMARK  130  A    between atoms: _363  and  _366
REMARK  131  A    between atoms: _366  and  _367
REMARK  132  A    between atoms: _370  and  _372
REMARK  133  A    between atoms: _372  and  _373
REMARK  134  A    between atoms: _372  and  _375
REMARK  135  A    between atoms: _375  and  _376
REMARK  136  A    between atoms: _381  and  _382
REMARK  137  A    between atoms: _384  and  _386
REMARK  138  A    between atoms: _386  and  _387
REMARK  139  A    between atoms: _386  and  _389
REMARK  140  A    between atoms: _389  and  _390
REMARK  141  A    between atoms: _392  and  _394
REMARK  142  A    between atoms: _394  and  _395
REMARK  143  A    between atoms: _394  and  _397
REMARK  144  A    between atoms: _400  and  _402
REMARK  145  A    between atoms: _402  and  _403
REMARK  146  A    between atoms: _402  and  _405
REMARK  147  A    between atoms: _405  and  _406
REMARK  148  A    between atoms: _416  and  _418
REMARK  149  A    between atoms: _418  and  _419
REMARK  150  A    between atoms: _418  and  _421
REMARK  151  A    between atoms: _421  and  _422
REMARK  152  A    between atoms: _427  and  _429
REMARK  153  A    between atoms: _429  and  _430
REMARK  154  A    between atoms: _429  and  _432
REMARK  155  A    between atoms: _432  and  _433
REMARK  156  A    between atoms: _433  and  _434
REMARK  157  A    between atoms: _434  and  _435
REMARK                            x       y       z     vdW  Elec       q    Type
REMARK                         _______ _______ _______ _____ _____    ______ ____
ROOT
ATOM      1  CB  ASN A   1      -7.524  -4.438 -16.184  0.00  0.00    +0.110 C 
ENDROOT
BRANCH   1   2
ATOM      2  CG  ASN A   1      -6.957  -3.253 -16.938  0.00  0.00    +0.221 C 
ATOM      3  ND2 ASN A   1      -6.789  -2.133 -16.244  0.00  0.00    -0.329 N 
ATOM      4 HD21 ASN A   1      -7.033  -2.106 -15.233  0.00  0.00    +0.145 HD
ATOM      5 HD22 ASN A   1      -6.413  -1.283 -16.711  0.00  0.00    +0.145 HD
ATOM      6  OD1 ASN A   1      -6.685  -3.340 -18.134  0.00  0.00    -0.275 OA
ENDBRANCH   1   2
BRANCH   1   7
ATOM      7  CA  ASN A   1      -7.171  -5.779 -16.840  0.00  0.00    +0.142 C 
BRANCH   7   8
ATOM      8  N   ASN A   1      -5.733  -5.886 -17.048  0.00  0.00    -0.239 NA
ATOM      9  H   ASN A   1      -5.342  -5.714 -17.996  0.00  0.00    +0.142 HD
ENDBRANCH   7   8
BRANCH   7  10
ATOM     10  C   ASN A   1      -7.971  -5.933 -18.129  0.00  0.00    +0.225 C 
ATOM     11  O   ASN A   1      -9.048  -5.352 -18.267  0.00  0.00    -0.287 OA
ENDBRANCH   7  10
ENDBRANCH   1   7
TORSDOF 4
REMARK  Name = ../refined-set-2016/2nmx/2nmx_pocket.pdb
REMARK  157 active torsions:
REMARK  status: ('A' for Active; 'I' for Inactive)
REMARK    1  A    between atoms: _1  and  _3
REMARK    2  A    between atoms: _3  and  _4
REMARK    3  A    between atoms: _3  and  _6
REMARK    4  A    between atoms: _6  and  _7
REMARK    5  A    between atoms: _17  and  _19
REMARK    6  A    between atoms: _19  and  _20
REMARK    7  A    between atoms: _19  and  _22
REMARK    8  A    between atoms: _22  and  _23
REMARK    9  A    between atoms: _28  and  _29
REMARK   10  A    between atoms: _31  and  _33
REMARK   11  A    between atoms: _33  and  _34
REMARK   12  A    between atoms: _33  and  _36
REMARK   13  A    between atoms: _36  and  _37
REMARK   14  A    between atoms: _40  and  _41
REMARK   15  A    between atoms: _46  and  _48
REMARK   16  A    between atoms: _48  and  _49
REMARK   17  A    between atoms: _48  and  _51
REMARK   18  A    between atoms: _54  and  _56
REMARK   19  A    between atoms: _56  and  _57
REMARK   20  A    between atoms: _56  and  _59
REMARK   21  A    between atoms: _59  and  _60
REMARK   22  A    between atoms: _65  and  _67
REMARK   23  A    between atoms: _67  and  _68
REMARK   24  A    between atoms: _67  and  _70
REMARK   25  A    between atoms: _70  and  _71
REMARK   26  A    between atoms: _73  and  _75
REMARK   27  A    between atoms: _75  and  _76
REMARK   28  A    between atoms: _75  and  _78
REMARK   29  A    between atoms: _78  and  _79
REMARK   30  A    between atoms: _84  and  _86
REMARK   31  A    between atoms: _86  and  _87
REMARK   32  A    between atoms: _86  and  _89
REMARK   33  A    between atoms: _89  and  _90
REMARK   34  A    between atoms: _95  and  _97
REMARK   35  A    between atoms: _97  and  _98
REMARK   36  A    between atoms: _97  and  _100
REMARK   37  A    between atoms: _100  and  _101
REMARK   38  A    between atoms: _107  and  _109
REMARK   39  A    between atoms: _109  and  _110
REMARK   40  A    between atoms: _109  and  _112
REMARK   41  A    between atoms: _112  and  _113
REMARK   42  A    between atoms: _119  and  _121
REMARK   43  A    between atoms: _121  and  _122
REMARK   44  A    between atoms: _121  and  _124
REMARK   45  A    between atoms: _124  and  _125
REMARK   46  A    between atoms: _125  and  _126
REMARK   47  A    between atoms: _131  and  _133
REMARK   48  A    between atoms: _133  and  _134
REMARK   49  A    between atoms: _133  and  _136
REMARK   50  A    between atoms: _136  and  _137
REMARK   51  A    between atoms: _143  and  _145
REMARK   52  A    between atoms: _156  and  _159
REMARK   53  A    between atoms: _159  and  _160
REMARK   54  A    between atoms: _168  and  _169
REMARK   55  A    between atoms: _177  and  _179
REMARK   56  A    between atoms: _179  and  _180
REMARK   57  A    between atoms: _179  and  _182
REMARK   58  A    between atoms: _182  and  _183
REMARK   59  A    between atoms: _183  and  _184
REMARK   60  A    between atoms: _187  and  _189
REMARK   61  A    between atoms: _189  and  _190
REMARK   62  A    between atoms: _189  and  _192
REMARK   63  A    between atoms: _192  and  _193
REMARK   64  A    between atoms: _198  and  _200
REMARK   65  A    between atoms: _200  and  _201
REMARK   66  A    between atoms: _200  and  _203
REMARK   67  A    between atoms: _203  and  _204
REMARK   68  A    between atoms: _204  and  _205
REMARK   69  A    between atoms: _208  and  _210
REMARK   70  A    between atoms: _210  and  _211
REMARK   71  A    between atoms: _210  and  _213
REMARK   72  A    between atoms: _213  and  _214
REMARK   73  A    between atoms: _217  and  _219
REMARK   74  A    between atoms: _219  and  _220
REMARK   75  A    between atoms: _219  and  _222
REMARK   76  A    between atoms: _222  and  _223
REMARK   77  A    between atoms: _224  and  ZN_444
REMARK   78  A    between atoms: _228  and  _230
REMARK   79  A    between atoms: _230  and  _231
REMARK   80  A    between atoms: _230  and  _233
REMARK   81  A    between atoms: _236  and  _238
REMARK   82  A    between atoms: _238  and  _239
REMARK   83  A    between atoms: _242  and  _244
REMARK   84  A    between atoms: _244  and  _245
REMARK   85  A    between atoms: _244  and  _247
REMARK   86  A    between atoms: _247  and  _248
REMARK   87  A    between atoms: _253  and  _255
REMARK   88  A    between atoms: _255  and  _256
REMARK   89  A    between atoms: _255  and  _258
REMARK   90  A    between atoms: _258  and  _259
REMARK   91  A    between atoms: _262  and  _264
REMARK   92  A    between atoms: _264  and  _265
REMARK   93  A    between atoms: _268  and  _270
REMARK   94  A    between atoms: _270  and  _271
REMARK   95  A    between atoms: _270  and  _273
REMARK   96  A    between atoms: _273  and  _274
REMARK   97  A    between atoms: _277  and  _279
REMARK   98  A    between atoms: _279  and  _280
REMARK   99  A    between atoms: _283  and  _285
REMARK  100  A    between atoms: _285  and  _286
REMARK  101  A    between atoms: _285  and  _288
REMARK  102  A    between atoms: _291  and  _293
REMARK  103  A    between atoms: _293  and  _294
REMARK  104  A    between atoms: _293  and  _296
REMARK  105  A    between atoms: _296  and  _297
REMARK  106  A    between atoms: _300  and  _302
REMARK  107  A    between atoms: _302  and  _303
REMARK  108  A    between atoms: _305  and  _307
REMARK  109  A    between atoms: _307  and  _308
REMARK  110  A    between atoms: _310  and  _312
REMARK  111  A    between atoms: _312  and  _313
REMARK  112  A    between atoms: _312  and  _315
REMARK  113  A    between atoms: _315  and  _316
REMARK  114  A    between atoms: _318  and  _320
REMARK  115  A    between atoms: _320  and  _321
REMARK  116  A    between atoms: _320  and  _323
REMARK  117  A    between atoms: _323  and  _324
REMARK  118  A    between atoms: _327  and  _329
REMARK  119  A    between atoms: _329  and  _330
REMARK  120  A    between atoms: _329  and  _332
REMARK  121  A    between atoms: _332  and  _333
REMARK  122  A    between atoms: _336  and  _338
REMARK  123  A    between atoms: _338  and  _339
REMARK  124  A    between atoms: _338  and  _341
REMARK  125  A    between atoms: _341  and  _342
REMARK  126  A    between atoms: _348  and  _349
REMARK  127  A    between atoms: _355  and  _356
REMARK  128  A    between atoms: _361  and  _363
REMARK  129  A    between atoms: _363  and  _364
REMARK  130  A    between atoms: _363  and  _366
REMARK  131  A    between atoms: _366  and  _367
REMARK  132  A    between atoms: _370  and  _372
REMARK  133  A    between atoms: _372  and  _373
REMARK  134  A    between atoms: _372  and  _375
REMARK  135  A    between atoms: _375  and  _376
REMARK  136  A    between atoms: _381  and  _382
REMARK  137  A    between atoms: _384  and  _386
REMARK  138  A    between atoms: _386  and  _387
REMARK  139  A    between atoms: _386  and  _389
REMARK  140  A    between atoms: _389  and  _390
REMARK  141  A    between atoms: _392  and  _394
REMARK  142  A    between atoms: _394  and  _395
REMARK  143  A    between atoms: _394  and  _397
REMARK  144  A    between atoms: _400  and  _402
REMARK  145  A    between atoms: _402  and  _403
REMARK  146  A    between atoms: _402  and  _405
REMARK  147  A    between atoms: _405  and  _406
REMARK  148  A    between atoms: _416  and  _418
REMARK  149  A    between atoms: _418  and  _419
REMARK  150  A    between atoms: _418  and  _421
REMARK  151  A    between atoms: _421  and  _422
REMARK  152  A    between atoms: _427  and  _429
REMARK  153  A    between atoms: _429  and  _430
REMARK  154  A    between atoms: _429  and  _432
REMARK  155  A    between atoms: _432  and  _433
REMARK  156  A    between atoms: _433  and  _434
REMARK  157  A    between atoms: _434  and  _435
REMARK                            x       y       z     vdW  Elec       q    Type
REMARK                         _______ _______ _______ _____ _____    ______ ____
ROOT
ATOM      1  NE  ARG A   1     -15.526 -11.339 -20.457  0.00  0.00    +0.330 N 
ATOM      2  HE  ARG A   1     -15.050 -12.153 -20.019  0.00  0.00    +0.000 HD
ATOM      3  CZ  ARG A   1     -16.841 -11.415 -20.634  0.00  0.00    +0.000 C 
ATOM      4  NH2 ARG A   1     -17.503 -12.488 -20.222  0.00  0.00    +0.330 N 
ATOM      5 HH21 ARG A   1     -16.993 -13.268 -19.761  0.00  0.00    +0.000 HD
ATOM      6 HH22 ARG A   1     -18.532 -12.549 -20.360  0.00  0.00    +0.000 HD
ATOM      7  NH1 ARG A   1     -17.501 -10.410 -21.196  0.00  0.00    +0.330 N 
ATOM      8 HH11 ARG A   1     -18.530 -10.475 -21.332  0.00  0.00    +0.000 HD
ATOM      9 HH12 ARG A   1     -16.989  -9.557 -21.500  0.00  0.00    +0.000 HD
ENDROOT
BRANCH   1  10
ATOM     10  CD  ARG A   1     -14.702 -10.193 -20.834  0.00  0.00    +0.000 C 
BRANCH  10  11
ATOM     11  CG  ARG A   1     -13.219 -10.514 -20.695  0.00  0.00    +0.000 C 
BRANCH  11  12
ATOM     12  CB  ARG A   1     -12.342  -9.269 -20.753  0.00  0.00    +0.000 C 
BRANCH  12  13
ATOM     13  CA  ARG A   1     -10.847  -9.562 -20.917  0.00  0.00    +0.000 C 
BRANCH  13  14
ATOM     14  N   ARG A   1     -10.079  -8.327 -20.818  0.00  0.00    +0.000 NA
ATOM     15  H   ARG A   1     -10.528  -7.433 -21.101  0.00  0.00    +0.000 HD
ENDBRANCH  13  14
BRANCH  13  16
ATOM     16  C   ARG A   1     -10.627 -10.233 -22.267  0.00  0.00    +0.000 C 
ATOM     17  O   ARG A   1     -10.472  -9.561 -23.285  0.00  0.00    +0.000 OA
ENDBRANCH  13  16
ENDBRANCH  12  13
ENDBRANCH  11  12
ENDBRANCH  10  11
ENDBRANCH   1  10
TORSDOF 6
REMARK  Name = ../refined-set-2016/2nmx/2nmx_pocket.pdb
REMARK  157 active torsions:
REMARK  status: ('A' for Active; 'I' for Inactive)
REMARK    1  A    between atoms: _1  and  _3
REMARK    2  A    between atoms: _3  and  _4
REMARK    3  A    between atoms: _3  and  _6
REMARK    4  A    between atoms: _6  and  _7
REMARK    5  A    between atoms: _17  and  _19
REMARK    6  A    between atoms: _19  and  _20
REMARK    7  A    between atoms: _19  and  _22
REMARK    8  A    between atoms: _22  and  _23
REMARK    9  A    between atoms: _28  and  _29
REMARK   10  A    between atoms: _31  and  _33
REMARK   11  A    between atoms: _33  and  _34
REMARK   12  A    between atoms: _33  and  _36
REMARK   13  A    between atoms: _36  and  _37
REMARK   14  A    between atoms: _40  and  _41
REMARK   15  A    between atoms: _46  and  _48
REMARK   16  A    between atoms: _48  and  _49
REMARK   17  A    between atoms: _48  and  _51
REMARK   18  A    between atoms: _54  and  _56
REMARK   19  A    between atoms: _56  and  _57
REMARK   20  A    between atoms: _56  and  _59
REMARK   21  A    between atoms: _59  and  _60
REMARK   22  A    between atoms: _65  and  _67
REMARK   23  A    between atoms: _67  and  _68
REMARK   24  A    between atoms: _67  and  _70
REMARK   25  A    between atoms: _70  and  _71
REMARK   26  A    between atoms: _73  and  _75
REMARK   27  A    between atoms: _75  and  _76
REMARK   28  A    between atoms: _75  and  _78
REMARK   29  A    between atoms: _78  and  _79
REMARK   30  A    between atoms: _84  and  _86
REMARK   31  A    between atoms: _86  and  _87
REMARK   32  A    between atoms: _86  and  _89
REMARK   33  A    between atoms: _89  and  _90
REMARK   34  A    between atoms: _95  and  _97
REMARK   35  A    between atoms: _97  and  _98
REMARK   36  A    between atoms: _97  and  _100
REMARK   37  A    between atoms: _100  and  _101
REMARK   38  A    between atoms: _107  and  _109
REMARK   39  A    between atoms: _109  and  _110
REMARK   40  A    between atoms: _109  and  _112
REMARK   41  A    between atoms: _112  and  _113
REMARK   42  A    between atoms: _119  and  _121
REMARK   43  A    between atoms: _121  and  _122
REMARK   44  A    between atoms: _121  and  _124
REMARK   45  A    between atoms: _124  and  _125
REMARK   46  A    between atoms: _125  and  _126
REMARK   47  A    between atoms: _131  and  _133
REMARK   48  A    between atoms: _133  and  _134
REMARK   49  A    between atoms: _133  and  _136
REMARK   50  A    between atoms: _136  and  _137
REMARK   51  A    between atoms: _143  and  _145
REMARK   52  A    between atoms: _156  and  _159
REMARK   53  A    between atoms: _159  and  _160
REMARK   54  A    between atoms: _168  and  _169
REMARK   55  A    between atoms: _177  and  _179
REMARK   56  A    between atoms: _179  and  _180
REMARK   57  A    between atoms: _179  and  _182
REMARK   58  A    between atoms: _182  and  _183
REMARK   59  A    between atoms: _183  and  _184
REMARK   60  A    between atoms: _187  and  _189
REMARK   61  A    between atoms: _189  and  _190
REMARK   62  A    between atoms: _189  and  _192
REMARK   63  A    between atoms: _192  and  _193
REMARK   64  A    between atoms: _198  and  _200
REMARK   65  A    between atoms: _200  and  _201
REMARK   66  A    between atoms: _200  and  _203
REMARK   67  A    between atoms: _203  and  _204
REMARK   68  A    between atoms: _204  and  _205
REMARK   69  A    between atoms: _208  and  _210
REMARK   70  A    between atoms: _210  and  _211
REMARK   71  A    between atoms: _210  and  _213
REMARK   72  A    between atoms: _213  and  _214
REMARK   73  A    between atoms: _217  and  _219
REMARK   74  A    between atoms: _219  and  _220
REMARK   75  A    between atoms: _219  and  _222
REMARK   76  A    between atoms: _222  and  _223
REMARK   77  A    between atoms: _224  and  ZN_444
REMARK   78  A    between atoms: _228  and  _230
REMARK   79  A    between atoms: _230  and  _231
REMARK   80  A    between atoms: _230  and  _233
REMARK   81  A    between atoms: _236  and  _238
REMARK   82  A    between atoms: _238  and  _239
REMARK   83  A    between atoms: _242  and  _244
REMARK   84  A    between atoms: _244  and  _245
REMARK   85  A    between atoms: _244  and  _247
REMARK   86  A    between atoms: _247  and  _248
REMARK   87  A    between atoms: _253  and  _255
REMARK   88  A    between atoms: _255  and  _256
REMARK   89  A    between atoms: _255  and  _258
REMARK   90  A    between atoms: _258  and  _259
REMARK   91  A    between atoms: _262  and  _264
REMARK   92  A    between atoms: _264  and  _265
REMARK   93  A    between atoms: _268  and  _270
REMARK   94  A    between atoms: _270  and  _271
REMARK   95  A    between atoms: _270  and  _273
REMARK   96  A    between atoms: _273  and  _274
REMARK   97  A    between atoms: _277  and  _279
REMARK   98  A    between atoms: _279  and  _280
REMARK   99  A    between atoms: _283  and  _285
REMARK  100  A    between atoms: _285  and  _286
REMARK  101  A    between atoms: _285  and  _288
REMARK  102  A    between atoms: _291  and  _293
REMARK  103  A    between atoms: _293  and  _294
REMARK  104  A    between atoms: _293  and  _296
REMARK  105  A    between atoms: _296  and  _297
REMARK  106  A    between atoms: _300  and  _302
REMARK  107  A    between atoms: _302  and  _303
REMARK  108  A    between atoms: _305  and  _307
REMARK  109  A    between atoms: _307  and  _308
REMARK  110  A    between atoms: _310  and  _312
REMARK  111  A    between atoms: _312  and  _313
REMARK  112  A    between atoms: _312  and  _315
REMARK  113  A    between atoms: _315  and  _316
REMARK  114  A    between atoms: _318  and  _320
REMARK  115  A    between atoms: _320  and  _321
REMARK  116  A    between atoms: _320  and  _323
REMARK  117  A    between atoms: _323  and  _324
REMARK  118  A    between atoms: _327  and  _329
REMARK  119  A    between atoms: _329  and  _330
REMARK  120  A    between atoms: _329  and  _332
REMARK  121  A    between atoms: _332  and  _333
REMARK  122  A    between atoms: _336  and  _338
REMARK  123  A    between atoms: _338  and  _339
REMARK  124  A    between atoms: _338  and  _341
REMARK  125  A    between atoms: _341  and  _342
REMARK  126  A    between atoms: _348  and  _349
REMARK  127  A    between atoms: _355  and  _356
REMARK  128  A    between atoms: _361  and  _363
REMARK  129  A    between atoms: _363  and  _364
REMARK  130  A    between atoms: _363  and  _366
REMARK  131  A    between atoms: _366  and  _367
REMARK  132  A    between atoms: _370  and  _372
REMARK  133  A    between atoms: _372  and  _373
REMARK  134  A    between atoms: _372  and  _375
REMARK  135  A    between atoms: _375  and  _376
REMARK  136  A    between atoms: _381  and  _382
REMARK  137  A    between atoms: _384  and  _386
REMARK  138  A    between atoms: _386  and  _387
REMARK  139  A    between atoms: _386  and  _389
REMARK  140  A    between atoms: _389  and  _390
REMARK  141  A    between atoms: _392  and  _394
REMARK  142  A    between atoms: _394  and  _395
REMARK  143  A    between atoms: _394  and  _397
REMARK  144  A    between atoms: _400  and  _402
REMARK  145  A    between atoms: _402  and  _403
REMARK  146  A    between atoms: _402  and  _405
REMARK  147  A    between atoms: _405  and  _406
REMARK  148  A    between atoms: _416  and  _418
REMARK  149  A    between atoms: _418  and  _419
REMARK  150  A    between atoms: _418  and  _421
REMARK  151  A    between atoms: _421  and  _422
REMARK  152  A    between atoms: _427  and  _429
REMARK  153  A    between atoms: _429  and  _430
REMARK  154  A    between atoms: _429  and  _432
REMARK  155  A    between atoms: _432  and  _433
REMARK  156  A    between atoms: _433  and  _434
REMARK  157  A    between atoms: _434  and  _435
REMARK                            x       y       z     vdW  Elec       q    Type
REMARK                         _______ _______ _______ _____ _____    ______ ____
ROOT
ATOM      1  O   HOH     1     -10.674  -3.067 -15.863  0.00  0.00    +0.000 OA
ENDROOT
TORSDOF 0
REMARK  Name = ../refined-set-2016/2nmx/2nmx_pocket.pdb
REMARK  157 active torsions:
REMARK  status: ('A' for Active; 'I' for Inactive)
REMARK    1  A    between atoms: _1  and  _3
REMARK    2  A    between atoms: _3  and  _4
REMARK    3  A    between atoms: _3  and  _6
REMARK    4  A    between atoms: _6  and  _7
REMARK    5  A    between atoms: _17  and  _19
REMARK    6  A    between atoms: _19  and  _20
REMARK    7  A    between atoms: _19  and  _22
REMARK    8  A    between atoms: _22  and  _23
REMARK    9  A    between atoms: _28  and  _29
REMARK   10  A    between atoms: _31  and  _33
REMARK   11  A    between atoms: _33  and  _34
REMARK   12  A    between atoms: _33  and  _36
REMARK   13  A    between atoms: _36  and  _37
REMARK   14  A    between atoms: _40  and  _41
REMARK   15  A    between atoms: _46  and  _48
REMARK   16  A    between atoms: _48  and  _49
REMARK   17  A    between atoms: _48  and  _51
REMARK   18  A    between atoms: _54  and  _56
REMARK   19  A    between atoms: _56  and  _57
REMARK   20  A    between atoms: _56  and  _59
REMARK   21  A    between atoms: _59  and  _60
REMARK   22  A    between atoms: _65  and  _67
REMARK   23  A    between atoms: _67  and  _68
REMARK   24  A    between atoms: _67  and  _70
REMARK   25  A    between atoms: _70  and  _71
REMARK   26  A    between atoms: _73  and  _75
REMARK   27  A    between atoms: _75  and  _76
REMARK   28  A    between atoms: _75  and  _78
REMARK   29  A    between atoms: _78  and  _79
REMARK   30  A    between atoms: _84  and  _86
REMARK   31  A    between atoms: _86  and  _87
REMARK   32  A    between atoms: _86  and  _89
REMARK   33  A    between atoms: _89  and  _90
REMARK   34  A    between atoms: _95  and  _97
REMARK   35  A    between atoms: _97  and  _98
REMARK   36  A    between atoms: _97  and  _100
REMARK   37  A    between atoms: _100  and  _101
REMARK   38  A    between atoms: _107  and  _109
REMARK   39  A    between atoms: _109  and  _110
REMARK   40  A    between atoms: _109  and  _112
REMARK   41  A    between atoms: _112  and  _113
REMARK   42  A    between atoms: _119  and  _121
REMARK   43  A    between atoms: _121  and  _122
REMARK   44  A    between atoms: _121  and  _124
REMARK   45  A    between atoms: _124  and  _125
REMARK   46  A    between atoms: _125  and  _126
REMARK   47  A    between atoms: _131  and  _133
REMARK   48  A    between atoms: _133  and  _134
REMARK   49  A    between atoms: _133  and  _136
REMARK   50  A    between atoms: _136  and  _137
REMARK   51  A    between atoms: _143  and  _145
REMARK   52  A    between atoms: _156  and  _159
REMARK   53  A    between atoms: _159  and  _160
REMARK   54  A    between atoms: _168  and  _169
REMARK   55  A    between atoms: _177  and  _179
REMARK   56  A    between atoms: _179  and  _180
REMARK   57  A    between atoms: _179  and  _182
REMARK   58  A    between atoms: _182  and  _183
REMARK   59  A    between atoms: _183  and  _184
REMARK   60  A    between atoms: _187  and  _189
REMARK   61  A    between atoms: _189  and  _190
REMARK   62  A    between atoms: _189  and  _192
REMARK   63  A    between atoms: _192  and  _193
REMARK   64  A    between atoms: _198  and  _200
REMARK   65  A    between atoms: _200  and  _201
REMARK   66  A    between atoms: _200  and  _203
REMARK   67  A    between atoms: _203  and  _204
REMARK   68  A    between atoms: _204  and  _205
REMARK   69  A    between atoms: _208  and  _210
REMARK   70  A    between atoms: _210  and  _211
REMARK   71  A    between atoms: _210  and  _213
REMARK   72  A    between atoms: _213  and  _214
REMARK   73  A    between atoms: _217  and  _219
REMARK   74  A    between atoms: _219  and  _220
REMARK   75  A    between atoms: _219  and  _222
REMARK   76  A    between atoms: _222  and  _223
REMARK   77  A    between atoms: _224  and  ZN_444
REMARK   78  A    between atoms: _228  and  _230
REMARK   79  A    between atoms: _230  and  _231
REMARK   80  A    between atoms: _230  and  _233
REMARK   81  A    between atoms: _236  and  _238
REMARK   82  A    between atoms: _238  and  _239
REMARK   83  A    between atoms: _242  and  _244
REMARK   84  A    between atoms: _244  and  _245
REMARK   85  A    between atoms: _244  and  _247
REMARK   86  A    between atoms: _247  and  _248
REMARK   87  A    between atoms: _253  and  _255
REMARK   88  A    between atoms: _255  and  _256
REMARK   89  A    between atoms: _255  and  _258
REMARK   90  A    between atoms: _258  and  _259
REMARK   91  A    between atoms: _262  and  _264
REMARK   92  A    between atoms: _264  and  _265
REMARK   93  A    between atoms: _268  and  _270
REMARK   94  A    between atoms: _270  and  _271
REMARK   95  A    between atoms: _270  and  _273
REMARK   96  A    between atoms: _273  and  _274
REMARK   97  A    between atoms: _277  and  _279
REMARK   98  A    between atoms: _279  and  _280
REMARK   99  A    between atoms: _283  and  _285
REMARK  100  A    between atoms: _285  and  _286
REMARK  101  A    between atoms: _285  and  _288
REMARK  102  A    between atoms: _291  and  _293
REMARK  103  A    between atoms: _293  and  _294
REMARK  104  A    between atoms: _293  and  _296
REMARK  105  A    between atoms: _296  and  _297
REMARK  106  A    between atoms: _300  and  _302
REMARK  107  A    between atoms: _302  and  _303
REMARK  108  A    between atoms: _305  and  _307
REMARK  109  A    between atoms: _307  and  _308
REMARK  110  A    between atoms: _310  and  _312
REMARK  111  A    between atoms: _312  and  _313
REMARK  112  A    between atoms: _312  and  _315
REMARK  113  A    between atoms: _315  and  _316
REMARK  114  A    between atoms: _318  and  _320
REMARK  115  A    between atoms: _320  and  _321
REMARK  116  A    between atoms: _320  and  _323
REMARK  117  A    between atoms: _323  and  _324
REMARK  118  A    between atoms: _327  and  _329
REMARK  119  A    between atoms: _329  and  _330
REMARK  120  A    between atoms: _329  and  _332
REMARK  121  A    between atoms: _332  and  _333
REMARK  122  A    between atoms: _336  and  _338
REMARK  123  A    between atoms: _338  and  _339
REMARK  124  A    between atoms: _338  and  _341
REMARK  125  A    between atoms: _341  and  _342
REMARK  126  A    between atoms: _348  and  _349
REMARK  127  A    between atoms: _355  and  _356
REMARK  128  A    between atoms: _361  and  _363
REMARK  129  A    between atoms: _363  and  _364
REMARK  130  A    between atoms: _363  and  _366
REMARK  131  A    between atoms: _366  and  _367
REMARK  132  A    between atoms: _370  and  _372
REMARK  133  A    between atoms: _372  and  _373
REMARK  134  A    between atoms: _372  and  _375
REMARK  135  A    between atoms: _375  and  _376
REMARK  136  A    between atoms: _381  and  _382
REMARK  137  A    between atoms: _384  and  _386
REMARK  138  A    between atoms: _386  and  _387
REMARK  139  A    between atoms: _386  and  _389
REMARK  140  A    between atoms: _389  and  _390
REMARK  141  A    between atoms: _392  and  _394
REMARK  142  A    between atoms: _394  and  _395
REMARK  143  A    between atoms: _394  and  _397
REMARK  144  A    between atoms: _400  and  _402
REMARK  145  A    between atoms: _402  and  _403
REMARK  146  A    between atoms: _402  and  _405
REMARK  147  A    between atoms: _405  and  _406
REMARK  148  A    between atoms: _416  and  _418
REMARK  149  A    between atoms: _418  and  _419
REMARK  150  A    between atoms: _418  and  _421
REMARK  151  A    between atoms: _421  and  _422
REMARK  152  A    between atoms: _427  and  _429
REMARK  153  A    between atoms: _429  and  _430
REMARK  154  A    between atoms: _429  and  _432
REMARK  155  A    between atoms: _432  and  _433
REMARK  156  A    between atoms: _433  and  _434
REMARK  157  A    between atoms: _434  and  _435
REMARK                            x       y       z     vdW  Elec       q    Type
REMARK                         _______ _______ _______ _____ _____    ______ ____
ROOT
ATOM      1  O   HOH     1     -10.296  -0.744 -17.233  0.00  0.00    +0.000 OA
ENDROOT
TORSDOF 0
REMARK  Name = ../refined-set-2016/2nmx/2nmx_pocket.pdb
REMARK  157 active torsions:
REMARK  status: ('A' for Active; 'I' for Inactive)
REMARK    1  A    between atoms: _1  and  _3
REMARK    2  A    between atoms: _3  and  _4
REMARK    3  A    between atoms: _3  and  _6
REMARK    4  A    between atoms: _6  and  _7
REMARK    5  A    between atoms: _17  and  _19
REMARK    6  A    between atoms: _19  and  _20
REMARK    7  A    between atoms: _19  and  _22
REMARK    8  A    between atoms: _22  and  _23
REMARK    9  A    between atoms: _28  and  _29
REMARK   10  A    between atoms: _31  and  _33
REMARK   11  A    between atoms: _33  and  _34
REMARK   12  A    between atoms: _33  and  _36
REMARK   13  A    between atoms: _36  and  _37
REMARK   14  A    between atoms: _40  and  _41
REMARK   15  A    between atoms: _46  and  _48
REMARK   16  A    between atoms: _48  and  _49
REMARK   17  A    between atoms: _48  and  _51
REMARK   18  A    between atoms: _54  and  _56
REMARK   19  A    between atoms: _56  and  _57
REMARK   20  A    between atoms: _56  and  _59
REMARK   21  A    between atoms: _59  and  _60
REMARK   22  A    between atoms: _65  and  _67
REMARK   23  A    between atoms: _67  and  _68
REMARK   24  A    between atoms: _67  and  _70
REMARK   25  A    between atoms: _70  and  _71
REMARK   26  A    between atoms: _73  and  _75
REMARK   27  A    between atoms: _75  and  _76
REMARK   28  A    between atoms: _75  and  _78
REMARK   29  A    between atoms: _78  and  _79
REMARK   30  A    between atoms: _84  and  _86
REMARK   31  A    between atoms: _86  and  _87
REMARK   32  A    between atoms: _86  and  _89
REMARK   33  A    between atoms: _89  and  _90
REMARK   34  A    between atoms: _95  and  _97
REMARK   35  A    between atoms: _97  and  _98
REMARK   36  A    between atoms: _97  and  _100
REMARK   37  A    between atoms: _100  and  _101
REMARK   38  A    between atoms: _107  and  _109
REMARK   39  A    between atoms: _109  and  _110
REMARK   40  A    between atoms: _109  and  _112
REMARK   41  A    between atoms: _112  and  _113
REMARK   42  A    between atoms: _119  and  _121
REMARK   43  A    between atoms: _121  and  _122
REMARK   44  A    between atoms: _121  and  _124
REMARK   45  A    between atoms: _124  and  _125
REMARK   46  A    between atoms: _125  and  _126
REMARK   47  A    between atoms: _131  and  _133
REMARK   48  A    between atoms: _133  and  _134
REMARK   49  A    between atoms: _133  and  _136
REMARK   50  A    between atoms: _136  and  _137
REMARK   51  A    between atoms: _143  and  _145
REMARK   52  A    between atoms: _156  and  _159
REMARK   53  A    between atoms: _159  and  _160
REMARK   54  A    between atoms: _168  and  _169
REMARK   55  A    between atoms: _177  and  _179
REMARK   56  A    between atoms: _179  and  _180
REMARK   57  A    between atoms: _179  and  _182
REMARK   58  A    between atoms: _182  and  _183
REMARK   59  A    between atoms: _183  and  _184
REMARK   60  A    between atoms: _187  and  _189
REMARK   61  A    between atoms: _189  and  _190
REMARK   62  A    between atoms: _189  and  _192
REMARK   63  A    between atoms: _192  and  _193
REMARK   64  A    between atoms: _198  and  _200
REMARK   65  A    between atoms: _200  and  _201
REMARK   66  A    between atoms: _200  and  _203
REMARK   67  A    between atoms: _203  and  _204
REMARK   68  A    between atoms: _204  and  _205
REMARK   69  A    between atoms: _208  and  _210
REMARK   70  A    between atoms: _210  and  _211
REMARK   71  A    between atoms: _210  and  _213
REMARK   72  A    between atoms: _213  and  _214
REMARK   73  A    between atoms: _217  and  _219
REMARK   74  A    between atoms: _219  and  _220
REMARK   75  A    between atoms: _219  and  _222
REMARK   76  A    between atoms: _222  and  _223
REMARK   77  A    between atoms: _224  and  ZN_444
REMARK   78  A    between atoms: _228  and  _230
REMARK   79  A    between atoms: _230  and  _231
REMARK   80  A    between atoms: _230  and  _233
REMARK   81  A    between atoms: _236  and  _238
REMARK   82  A    between atoms: _238  and  _239
REMARK   83  A    between atoms: _242  and  _244
REMARK   84  A    between atoms: _244  and  _245
REMARK   85  A    between atoms: _244  and  _247
REMARK   86  A    between atoms: _247  and  _248
REMARK   87  A    between atoms: _253  and  _255
REMARK   88  A    between atoms: _255  and  _256
REMARK   89  A    between atoms: _255  and  _258
REMARK   90  A    between atoms: _258  and  _259
REMARK   91  A    between atoms: _262  and  _264
REMARK   92  A    between atoms: _264  and  _265
REMARK   93  A    between atoms: _268  and  _270
REMARK   94  A    between atoms: _270  and  _271
REMARK   95  A    between atoms: _270  and  _273
REMARK   96  A    between atoms: _273  and  _274
REMARK   97  A    between atoms: _277  and  _279
REMARK   98  A    between atoms: _279  and  _280
REMARK   99  A    between atoms: _283  and  _285
REMARK  100  A    between atoms: _285  and  _286
REMARK  101  A    between atoms: _285  and  _288
REMARK  102  A    between atoms: _291  and  _293
REMARK  103  A    between atoms: _293  and  _294
REMARK  104  A    between atoms: _293  and  _296
REMARK  105  A    between atoms: _296  and  _297
REMARK  106  A    between atoms: _300  and  _302
REMARK  107  A    between atoms: _302  and  _303
REMARK  108  A    between atoms: _305  and  _307
REMARK  109  A    between atoms: _307  and  _308
REMARK  110  A    between atoms: _310  and  _312
REMARK  111  A    between atoms: _312  and  _313
REMARK  112  A    between atoms: _312  and  _315
REMARK  113  A    between atoms: _315  and  _316
REMARK  114  A    between atoms: _318  and  _320
REMARK  115  A    between atoms: _320  and  _321
REMARK  116  A    between atoms: _320  and  _323
REMARK  117  A    between atoms: _323  and  _324
REMARK  118  A    between atoms: _327  and  _329
REMARK  119  A    between atoms: _329  and  _330
REMARK  120  A    between atoms: _329  and  _332
REMARK  121  A    between atoms: _332  and  _333
REMARK  122  A    between atoms: _336  and  _338
REMARK  123  A    between atoms: _338  and  _339
REMARK  124  A    between atoms: _338  and  _341
REMARK  125  A    between atoms: _341  and  _342
REMARK  126  A    between atoms: _348  and  _349
REMARK  127  A    between atoms: _355  and  _356
REMARK  128  A    between atoms: _361  and  _363
REMARK  129  A    between atoms: _363  and  _364
REMARK  130  A    between atoms: _363  and  _366
REMARK  131  A    between atoms: _366  and  _367
REMARK  132  A    between atoms: _370  and  _372
REMARK  133  A    between atoms: _372  and  _373
REMARK  134  A    between atoms: _372  and  _375
REMARK  135  A    between atoms: _375  and  _376
REMARK  136  A    between atoms: _381  and  _382
REMARK  137  A    between atoms: _384  and  _386
REMARK  138  A    between atoms: _386  and  _387
REMARK  139  A    between atoms: _386  and  _389
REMARK  140  A    between atoms: _389  and  _390
REMARK  141  A    between atoms: _392  and  _394
REMARK  142  A    between atoms: _394  and  _395
REMARK  143  A    between atoms: _394  and  _397
REMARK  144  A    between atoms: _400  and  _402
REMARK  145  A    between atoms: _402  and  _403
REMARK  146  A    between atoms: _402  and  _405
REMARK  147  A    between atoms: _405  and  _406
REMARK  148  A    between atoms: _416  and  _418
REMARK  149  A    between atoms: _418  and  _419
REMARK  150  A    between atoms: _418  and  _421
REMARK  151  A    between atoms: _421  and  _422
REMARK  152  A    between atoms: _427  and  _429
REMARK  153  A    between atoms: _429  and  _430
REMARK  154  A    between atoms: _429  and  _432
REMARK  155  A    between atoms: _432  and  _433
REMARK  156  A    between atoms: _433  and  _434
REMARK  157  A    between atoms: _434  and  _435
REMARK                            x       y       z     vdW  Elec       q    Type
REMARK                         _______ _______ _______ _____ _____    ______ ____
ROOT
ATOM      1  O   HOH     1     -12.469  -6.198 -18.754  0.00  0.00    +0.000 OA
ENDROOT
TORSDOF 0
REMARK  Name = ../refined-set-2016/2nmx/2nmx_pocket.pdb
REMARK  157 active torsions:
REMARK  status: ('A' for Active; 'I' for Inactive)
REMARK    1  A    between atoms: _1  and  _3
REMARK    2  A    between atoms: _3  and  _4
REMARK    3  A    between atoms: _3  and  _6
REMARK    4  A    between atoms: _6  and  _7
REMARK    5  A    between atoms: _17  and  _19
REMARK    6  A    between atoms: _19  and  _20
REMARK    7  A    between atoms: _19  and  _22
REMARK    8  A    between atoms: _22  and  _23
REMARK    9  A    between atoms: _28  and  _29
REMARK   10  A    between atoms: _31  and  _33
REMARK   11  A    between atoms: _33  and  _34
REMARK   12  A    between atoms: _33  and  _36
REMARK   13  A    between atoms: _36  and  _37
REMARK   14  A    between atoms: _40  and  _41
REMARK   15  A    between atoms: _46  and  _48
REMARK   16  A    between atoms: _48  and  _49
REMARK   17  A    between atoms: _48  and  _51
REMARK   18  A    between atoms: _54  and  _56
REMARK   19  A    between atoms: _56  and  _57
REMARK   20  A    between atoms: _56  and  _59
REMARK   21  A    between atoms: _59  and  _60
REMARK   22  A    between atoms: _65  and  _67
REMARK   23  A    between atoms: _67  and  _68
REMARK   24  A    between atoms: _67  and  _70
REMARK   25  A    between atoms: _70  and  _71
REMARK   26  A    between atoms: _73  and  _75
REMARK   27  A    between atoms: _75  and  _76
REMARK   28  A    between atoms: _75  and  _78
REMARK   29  A    between atoms: _78  and  _79
REMARK   30  A    between atoms: _84  and  _86
REMARK   31  A    between atoms: _86  and  _87
REMARK   32  A    between atoms: _86  and  _89
REMARK   33  A    between atoms: _89  and  _90
REMARK   34  A    between atoms: _95  and  _97
REMARK   35  A    between atoms: _97  and  _98
REMARK   36  A    between atoms: _97  and  _100
REMARK   37  A    between atoms: _100  and  _101
REMARK   38  A    between atoms: _107  and  _109
REMARK   39  A    between atoms: _109  and  _110
REMARK   40  A    between atoms: _109  and  _112
REMARK   41  A    between atoms: _112  and  _113
REMARK   42  A    between atoms: _119  and  _121
REMARK   43  A    between atoms: _121  and  _122
REMARK   44  A    between atoms: _121  and  _124
REMARK   45  A    between atoms: _124  and  _125
REMARK   46  A    between atoms: _125  and  _126
REMARK   47  A    between atoms: _131  and  _133
REMARK   48  A    between atoms: _133  and  _134
REMARK   49  A    between atoms: _133  and  _136
REMARK   50  A    between atoms: _136  and  _137
REMARK   51  A    between atoms: _143  and  _145
REMARK   52  A    between atoms: _156  and  _159
REMARK   53  A    between atoms: _159  and  _160
REMARK   54  A    between atoms: _168  and  _169
REMARK   55  A    between atoms: _177  and  _179
REMARK   56  A    between atoms: _179  and  _180
REMARK   57  A    between atoms: _179  and  _182
REMARK   58  A    between atoms: _182  and  _183
REMARK   59  A    between atoms: _183  and  _184
REMARK   60  A    between atoms: _187  and  _189
REMARK   61  A    between atoms: _189  and  _190
REMARK   62  A    between atoms: _189  and  _192
REMARK   63  A    between atoms: _192  and  _193
REMARK   64  A    between atoms: _198  and  _200
REMARK   65  A    between atoms: _200  and  _201
REMARK   66  A    between atoms: _200  and  _203
REMARK   67  A    between atoms: _203  and  _204
REMARK   68  A    between atoms: _204  and  _205
REMARK   69  A    between atoms: _208  and  _210
REMARK   70  A    between atoms: _210  and  _211
REMARK   71  A    between atoms: _210  and  _213
REMARK   72  A    between atoms: _213  and  _214
REMARK   73  A    between atoms: _217  and  _219
REMARK   74  A    between atoms: _219  and  _220
REMARK   75  A    between atoms: _219  and  _222
REMARK   76  A    between atoms: _222  and  _223
REMARK   77  A    between atoms: _224  and  ZN_444
REMARK   78  A    between atoms: _228  and  _230
REMARK   79  A    between atoms: _230  and  _231
REMARK   80  A    between atoms: _230  and  _233
REMARK   81  A    between atoms: _236  and  _238
REMARK   82  A    between atoms: _238  and  _239
REMARK   83  A    between atoms: _242  and  _244
REMARK   84  A    between atoms: _244  and  _245
REMARK   85  A    between atoms: _244  and  _247
REMARK   86  A    between atoms: _247  and  _248
REMARK   87  A    between atoms: _253  and  _255
REMARK   88  A    between atoms: _255  and  _256
REMARK   89  A    between atoms: _255  and  _258
REMARK   90  A    between atoms: _258  and  _259
REMARK   91  A    between atoms: _262  and  _264
REMARK   92  A    between atoms: _264  and  _265
REMARK   93  A    between atoms: _268  and  _270
REMARK   94  A    between atoms: _270  and  _271
REMARK   95  A    between atoms: _270  and  _273
REMARK   96  A    between atoms: _273  and  _274
REMARK   97  A    between atoms: _277  and  _279
REMARK   98  A    between atoms: _279  and  _280
REMARK   99  A    between atoms: _283  and  _285
REMARK  100  A    between atoms: _285  and  _286
REMARK  101  A    between atoms: _285  and  _288
REMARK  102  A    between atoms: _291  and  _293
REMARK  103  A    between atoms: _293  and  _294
REMARK  104  A    between atoms: _293  and  _296
REMARK  105  A    between atoms: _296  and  _297
REMARK  106  A    between atoms: _300  and  _302
REMARK  107  A    between atoms: _302  and  _303
REMARK  108  A    between atoms: _305  and  _307
REMARK  109  A    between atoms: _307  and  _308
REMARK  110  A    between atoms: _310  and  _312
REMARK  111  A    between atoms: _312  and  _313
REMARK  112  A    between atoms: _312  and  _315
REMARK  113  A    between atoms: _315  and  _316
REMARK  114  A    between atoms: _318  and  _320
REMARK  115  A    between atoms: _320  and  _321
REMARK  116  A    between atoms: _320  and  _323
REMARK  117  A    between atoms: _323  and  _324
REMARK  118  A    between atoms: _327  and  _329
REMARK  119  A    between atoms: _329  and  _330
REMARK  120  A    between atoms: _329  and  _332
REMARK  121  A    between atoms: _332  and  _333
REMARK  122  A    between atoms: _336  and  _338
REMARK  123  A    between atoms: _338  and  _339
REMARK  124  A    between atoms: _338  and  _341
REMARK  125  A    between atoms: _341  and  _342
REMARK  126  A    between atoms: _348  and  _349
REMARK  127  A    between atoms: _355  and  _356
REMARK  128  A    between atoms: _361  and  _363
REMARK  129  A    between atoms: _363  and  _364
REMARK  130  A    between atoms: _363  and  _366
REMARK  131  A    between atoms: _366  and  _367
REMARK  132  A    between atoms: _370  and  _372
REMARK  133  A    between atoms: _372  and  _373
REMARK  134  A    between atoms: _372  and  _375
REMARK  135  A    between atoms: _375  and  _376
REMARK  136  A    between atoms: _381  and  _382
REMARK  137  A    between atoms: _384  and  _386
REMARK  138  A    between atoms: _386  and  _387
REMARK  139  A    between atoms: _386  and  _389
REMARK  140  A    between atoms: _389  and  _390
REMARK  141  A    between atoms: _392  and  _394
REMARK  142  A    between atoms: _394  and  _395
REMARK  143  A    between atoms: _394  and  _397
REMARK  144  A    between atoms: _400  and  _402
REMARK  145  A    between atoms: _402  and  _403
REMARK  146  A    between atoms: _402  and  _405
REMARK  147  A    between atoms: _405  and  _406
REMARK  148  A    between atoms: _416  and  _418
REMARK  149  A    between atoms: _418  and  _419
REMARK  150  A    between atoms: _418  and  _421
REMARK  151  A    between atoms: _421  and  _422
REMARK  152  A    between atoms: _427  and  _429
REMARK  153  A    between atoms: _429  and  _430
REMARK  154  A    between atoms: _429  and  _432
REMARK  155  A    between atoms: _432  and  _433
REMARK  156  A    between atoms: _433  and  _434
REMARK  157  A    between atoms: _434  and  _435
REMARK                            x       y       z     vdW  Elec       q    Type
REMARK                         _______ _______ _______ _____ _____    ______ ____
ROOT
ATOM      1  O   HOH     1     -12.979  -0.052 -16.323  0.00  0.00    +0.000 OA
ENDROOT
TORSDOF 0
REMARK  Name = ../refined-set-2016/2nmx/2nmx_pocket.pdb
REMARK  157 active torsions:
REMARK  status: ('A' for Active; 'I' for Inactive)
REMARK    1  A    between atoms: _1  and  _3
REMARK    2  A    between atoms: _3  and  _4
REMARK    3  A    between atoms: _3  and  _6
REMARK    4  A    between atoms: _6  and  _7
REMARK    5  A    between atoms: _17  and  _19
REMARK    6  A    between atoms: _19  and  _20
REMARK    7  A    between atoms: _19  and  _22
REMARK    8  A    between atoms: _22  and  _23
REMARK    9  A    between atoms: _28  and  _29
REMARK   10  A    between atoms: _31  and  _33
REMARK   11  A    between atoms: _33  and  _34
REMARK   12  A    between atoms: _33  and  _36
REMARK   13  A    between atoms: _36  and  _37
REMARK   14  A    between atoms: _40  and  _41
REMARK   15  A    between atoms: _46  and  _48
REMARK   16  A    between atoms: _48  and  _49
REMARK   17  A    between atoms: _48  and  _51
REMARK   18  A    between atoms: _54  and  _56
REMARK   19  A    between atoms: _56  and  _57
REMARK   20  A    between atoms: _56  and  _59
REMARK   21  A    between atoms: _59  and  _60
REMARK   22  A    between atoms: _65  and  _67
REMARK   23  A    between atoms: _67  and  _68
REMARK   24  A    between atoms: _67  and  _70
REMARK   25  A    between atoms: _70  and  _71
REMARK   26  A    between atoms: _73  and  _75
REMARK   27  A    between atoms: _75  and  _76
REMARK   28  A    between atoms: _75  and  _78
REMARK   29  A    between atoms: _78  and  _79
REMARK   30  A    between atoms: _84  and  _86
REMARK   31  A    between atoms: _86  and  _87
REMARK   32  A    between atoms: _86  and  _89
REMARK   33  A    between atoms: _89  and  _90
REMARK   34  A    between atoms: _95  and  _97
REMARK   35  A    between atoms: _97  and  _98
REMARK   36  A    between atoms: _97  and  _100
REMARK   37  A    between atoms: _100  and  _101
REMARK   38  A    between atoms: _107  and  _109
REMARK   39  A    between atoms: _109  and  _110
REMARK   40  A    between atoms: _109  and  _112
REMARK   41  A    between atoms: _112  and  _113
REMARK   42  A    between atoms: _119  and  _121
REMARK   43  A    between atoms: _121  and  _122
REMARK   44  A    between atoms: _121  and  _124
REMARK   45  A    between atoms: _124  and  _125
REMARK   46  A    between atoms: _125  and  _126
REMARK   47  A    between atoms: _131  and  _133
REMARK   48  A    between atoms: _133  and  _134
REMARK   49  A    between atoms: _133  and  _136
REMARK   50  A    between atoms: _136  and  _137
REMARK   51  A    between atoms: _143  and  _145
REMARK   52  A    between atoms: _156  and  _159
REMARK   53  A    between atoms: _159  and  _160
REMARK   54  A    between atoms: _168  and  _169
REMARK   55  A    between atoms: _177  and  _179
REMARK   56  A    between atoms: _179  and  _180
REMARK   57  A    between atoms: _179  and  _182
REMARK   58  A    between atoms: _182  and  _183
REMARK   59  A    between atoms: _183  and  _184
REMARK   60  A    between atoms: _187  and  _189
REMARK   61  A    between atoms: _189  and  _190
REMARK   62  A    between atoms: _189  and  _192
REMARK   63  A    between atoms: _192  and  _193
REMARK   64  A    between atoms: _198  and  _200
REMARK   65  A    between atoms: _200  and  _201
REMARK   66  A    between atoms: _200  and  _203
REMARK   67  A    between atoms: _203  and  _204
REMARK   68  A    between atoms: _204  and  _205
REMARK   69  A    between atoms: _208  and  _210
REMARK   70  A    between atoms: _210  and  _211
REMARK   71  A    between atoms: _210  and  _213
REMARK   72  A    between atoms: _213  and  _214
REMARK   73  A    between atoms: _217  and  _219
REMARK   74  A    between atoms: _219  and  _220
REMARK   75  A    between atoms: _219  and  _222
REMARK   76  A    between atoms: _222  and  _223
REMARK   77  A    between atoms: _224  and  ZN_444
REMARK   78  A    between atoms: _228  and  _230
REMARK   79  A    between atoms: _230  and  _231
REMARK   80  A    between atoms: _230  and  _233
REMARK   81  A    between atoms: _236  and  _238
REMARK   82  A    between atoms: _238  and  _239
REMARK   83  A    between atoms: _242  and  _244
REMARK   84  A    between atoms: _244  and  _245
REMARK   85  A    between atoms: _244  and  _247
REMARK   86  A    between atoms: _247  and  _248
REMARK   87  A    between atoms: _253  and  _255
REMARK   88  A    between atoms: _255  and  _256
REMARK   89  A    between atoms: _255  and  _258
REMARK   90  A    between atoms: _258  and  _259
REMARK   91  A    between atoms: _262  and  _264
REMARK   92  A    between atoms: _264  and  _265
REMARK   93  A    between atoms: _268  and  _270
REMARK   94  A    between atoms: _270  and  _271
REMARK   95  A    between atoms: _270  and  _273
REMARK   96  A    between atoms: _273  and  _274
REMARK   97  A    between atoms: _277  and  _279
REMARK   98  A    between atoms: _279  and  _280
REMARK   99  A    between atoms: _283  and  _285
REMARK  100  A    between atoms: _285  and  _286
REMARK  101  A    between atoms: _285  and  _288
REMARK  102  A    between atoms: _291  and  _293
REMARK  103  A    between atoms: _293  and  _294
REMARK  104  A    between atoms: _293  and  _296
REMARK  105  A    between atoms: _296  and  _297
REMARK  106  A    between atoms: _300  and  _302
REMARK  107  A    between atoms: _302  and  _303
REMARK  108  A    between atoms: _305  and  _307
REMARK  109  A    between atoms: _307  and  _308
REMARK  110  A    between atoms: _310  and  _312
REMARK  111  A    between atoms: _312  and  _313
REMARK  112  A    between atoms: _312  and  _315
REMARK  113  A    between atoms: _315  and  _316
REMARK  114  A    between atoms: _318  and  _320
REMARK  115  A    between atoms: _320  and  _321
REMARK  116  A    between atoms: _320  and  _323
REMARK  117  A    between atoms: _323  and  _324
REMARK  118  A    between atoms: _327  and  _329
REMARK  119  A    between atoms: _329  and  _330
REMARK  120  A    between atoms: _329  and  _332
REMARK  121  A    between atoms: _332  and  _333
REMARK  122  A    between atoms: _336  and  _338
REMARK  123  A    between atoms: _338  and  _339
REMARK  124  A    between atoms: _338  and  _341
REMARK  125  A    between atoms: _341  and  _342
REMARK  126  A    between atoms: _348  and  _349
REMARK  127  A    between atoms: _355  and  _356
REMARK  128  A    between atoms: _361  and  _363
REMARK  129  A    between atoms: _363  and  _364
REMARK  130  A    between atoms: _363  and  _366
REMARK  131  A    between atoms: _366  and  _367
REMARK  132  A    between atoms: _370  and  _372
REMARK  133  A    between atoms: _372  and  _373
REMARK  134  A    between atoms: _372  and  _375
REMARK  135  A    between atoms: _375  and  _376
REMARK  136  A    between atoms: _381  and  _382
REMARK  137  A    between atoms: _384  and  _386
REMARK  138  A    between atoms: _386  and  _387
REMARK  139  A    between atoms: _386  and  _389
REMARK  140  A    between atoms: _389  and  _390
REMARK  141  A    between atoms: _392  and  _394
REMARK  142  A    between atoms: _394  and  _395
REMARK  143  A    between atoms: _394  and  _397
REMARK  144  A    between atoms: _400  and  _402
REMARK  145  A    between atoms: _402  and  _403
REMARK  146  A    between atoms: _402  and  _405
REMARK  147  A    between atoms: _405  and  _406
REMARK  148  A    between atoms: _416  and  _418
REMARK  149  A    between atoms: _418  and  _419
REMARK  150  A    between atoms: _418  and  _421
REMARK  151  A    between atoms: _421  and  _422
REMARK  152  A    between atoms: _427  and  _429
REMARK  153  A    between atoms: _429  and  _430
REMARK  154  A    between atoms: _429  and  _432
REMARK  155  A    between atoms: _432  and  _433
REMARK  156  A    between atoms: _433  and  _434
REMARK  157  A    between atoms: _434  and  _435
REMARK                            x       y       z     vdW  Elec       q    Type
REMARK                         _______ _______ _______ _____ _____    ______ ____
ROOT
ATOM      1  O   HOH     1     -15.485  -0.539 -11.689  0.00  0.00    +0.000 OA
ENDROOT
TORSDOF 0
REMARK  Name = ../refined-set-2016/2nmx/2nmx_pocket.pdb
REMARK  157 active torsions:
REMARK  status: ('A' for Active; 'I' for Inactive)
REMARK    1  A    between atoms: _1  and  _3
REMARK    2  A    between atoms: _3  and  _4
REMARK    3  A    between atoms: _3  and  _6
REMARK    4  A    between atoms: _6  and  _7
REMARK    5  A    between atoms: _17  and  _19
REMARK    6  A    between atoms: _19  and  _20
REMARK    7  A    between atoms: _19  and  _22
REMARK    8  A    between atoms: _22  and  _23
REMARK    9  A    between atoms: _28  and  _29
REMARK   10  A    between atoms: _31  and  _33
REMARK   11  A    between atoms: _33  and  _34
REMARK   12  A    between atoms: _33  and  _36
REMARK   13  A    between atoms: _36  and  _37
REMARK   14  A    between atoms: _40  and  _41
REMARK   15  A    between atoms: _46  and  _48
REMARK   16  A    between atoms: _48  and  _49
REMARK   17  A    between atoms: _48  and  _51
REMARK   18  A    between atoms: _54  and  _56
REMARK   19  A    between atoms: _56  and  _57
REMARK   20  A    between atoms: _56  and  _59
REMARK   21  A    between atoms: _59  and  _60
REMARK   22  A    between atoms: _65  and  _67
REMARK   23  A    between atoms: _67  and  _68
REMARK   24  A    between atoms: _67  and  _70
REMARK   25  A    between atoms: _70  and  _71
REMARK   26  A    between atoms: _73  and  _75
REMARK   27  A    between atoms: _75  and  _76
REMARK   28  A    between atoms: _75  and  _78
REMARK   29  A    between atoms: _78  and  _79
REMARK   30  A    between atoms: _84  and  _86
REMARK   31  A    between atoms: _86  and  _87
REMARK   32  A    between atoms: _86  and  _89
REMARK   33  A    between atoms: _89  and  _90
REMARK   34  A    between atoms: _95  and  _97
REMARK   35  A    between atoms: _97  and  _98
REMARK   36  A    between atoms: _97  and  _100
REMARK   37  A    between atoms: _100  and  _101
REMARK   38  A    between atoms: _107  and  _109
REMARK   39  A    between atoms: _109  and  _110
REMARK   40  A    between atoms: _109  and  _112
REMARK   41  A    between atoms: _112  and  _113
REMARK   42  A    between atoms: _119  and  _121
REMARK   43  A    between atoms: _121  and  _122
REMARK   44  A    between atoms: _121  and  _124
REMARK   45  A    between atoms: _124  and  _125
REMARK   46  A    between atoms: _125  and  _126
REMARK   47  A    between atoms: _131  and  _133
REMARK   48  A    between atoms: _133  and  _134
REMARK   49  A    between atoms: _133  and  _136
REMARK   50  A    between atoms: _136  and  _137
REMARK   51  A    between atoms: _143  and  _145
REMARK   52  A    between atoms: _156  and  _159
REMARK   53  A    between atoms: _159  and  _160
REMARK   54  A    between atoms: _168  and  _169
REMARK   55  A    between atoms: _177  and  _179
REMARK   56  A    between atoms: _179  and  _180
REMARK   57  A    between atoms: _179  and  _182
REMARK   58  A    between atoms: _182  and  _183
REMARK   59  A    between atoms: _183  and  _184
REMARK   60  A    between atoms: _187  and  _189
REMARK   61  A    between atoms: _189  and  _190
REMARK   62  A    between atoms: _189  and  _192
REMARK   63  A    between atoms: _192  and  _193
REMARK   64  A    between atoms: _198  and  _200
REMARK   65  A    between atoms: _200  and  _201
REMARK   66  A    between atoms: _200  and  _203
REMARK   67  A    between atoms: _203  and  _204
REMARK   68  A    between atoms: _204  and  _205
REMARK   69  A    between atoms: _208  and  _210
REMARK   70  A    between atoms: _210  and  _211
REMARK   71  A    between atoms: _210  and  _213
REMARK   72  A    between atoms: _213  and  _214
REMARK   73  A    between atoms: _217  and  _219
REMARK   74  A    between atoms: _219  and  _220
REMARK   75  A    between atoms: _219  and  _222
REMARK   76  A    between atoms: _222  and  _223
REMARK   77  A    between atoms: _224  and  ZN_444
REMARK   78  A    between atoms: _228  and  _230
REMARK   79  A    between atoms: _230  and  _231
REMARK   80  A    between atoms: _230  and  _233
REMARK   81  A    between atoms: _236  and  _238
REMARK   82  A    between atoms: _238  and  _239
REMARK   83  A    between atoms: _242  and  _244
REMARK   84  A    between atoms: _244  and  _245
REMARK   85  A    between atoms: _244  and  _247
REMARK   86  A    between atoms: _247  and  _248
REMARK   87  A    between atoms: _253  and  _255
REMARK   88  A    between atoms: _255  and  _256
REMARK   89  A    between atoms: _255  and  _258
REMARK   90  A    between atoms: _258  and  _259
REMARK   91  A    between atoms: _262  and  _264
REMARK   92  A    between atoms: _264  and  _265
REMARK   93  A    between atoms: _268  and  _270
REMARK   94  A    between atoms: _270  and  _271
REMARK   95  A    between atoms: _270  and  _273
REMARK   96  A    between atoms: _273  and  _274
REMARK   97  A    between atoms: _277  and  _279
REMARK   98  A    between atoms: _279  and  _280
REMARK   99  A    between atoms: _283  and  _285
REMARK  100  A    between atoms: _285  and  _286
REMARK  101  A    between atoms: _285  and  _288
REMARK  102  A    between atoms: _291  and  _293
REMARK  103  A    between atoms: _293  and  _294
REMARK  104  A    between atoms: _293  and  _296
REMARK  105  A    between atoms: _296  and  _297
REMARK  106  A    between atoms: _300  and  _302
REMARK  107  A    between atoms: _302  and  _303
REMARK  108  A    between atoms: _305  and  _307
REMARK  109  A    between atoms: _307  and  _308
REMARK  110  A    between atoms: _310  and  _312
REMARK  111  A    between atoms: _312  and  _313
REMARK  112  A    between atoms: _312  and  _315
REMARK  113  A    between atoms: _315  and  _316
REMARK  114  A    between atoms: _318  and  _320
REMARK  115  A    between atoms: _320  and  _321
REMARK  116  A    between atoms: _320  and  _323
REMARK  117  A    between atoms: _323  and  _324
REMARK  118  A    between atoms: _327  and  _329
REMARK  119  A    between atoms: _329  and  _330
REMARK  120  A    between atoms: _329  and  _332
REMARK  121  A    between atoms: _332  and  _333
REMARK  122  A    between atoms: _336  and  _338
REMARK  123  A    between atoms: _338  and  _339
REMARK  124  A    between atoms: _338  and  _341
REMARK  125  A    between atoms: _341  and  _342
REMARK  126  A    between atoms: _348  and  _349
REMARK  127  A    between atoms: _355  and  _356
REMARK  128  A    between atoms: _361  and  _363
REMARK  129  A    between atoms: _363  and  _364
REMARK  130  A    between atoms: _363  and  _366
REMARK  131  A    between atoms: _366  and  _367
REMARK  132  A    between atoms: _370  and  _372
REMARK  133  A    between atoms: _372  and  _373
REMARK  134  A    between atoms: _372  and  _375
REMARK  135  A    between atoms: _375  and  _376
REMARK  136  A    between atoms: _381  and  _382
REMARK  137  A    between atoms: _384  and  _386
REMARK  138  A    between atoms: _386  and  _387
REMARK  139  A    between atoms: _386  and  _389
REMARK  140  A    between atoms: _389  and  _390
REMARK  141  A    between atoms: _392  and  _394
REMARK  142  A    between atoms: _394  and  _395
REMARK  143  A    between atoms: _394  and  _397
REMARK  144  A    between atoms: _400  and  _402
REMARK  145  A    between atoms: _402  and  _403
REMARK  146  A    between atoms: _402  and  _405
REMARK  147  A    between atoms: _405  and  _406
REMARK  148  A    between atoms: _416  and  _418
REMARK  149  A    between atoms: _418  and  _419
REMARK  150  A    between atoms: _418  and  _421
REMARK  151  A    between atoms: _421  and  _422
REMARK  152  A    between atoms: _427  and  _429
REMARK  153  A    between atoms: _429  and  _430
REMARK  154  A    between atoms: _429  and  _432
REMARK  155  A    between atoms: _432  and  _433
REMARK  156  A    between atoms: _433  and  _434
REMARK  157  A    between atoms: _434  and  _435
REMARK                            x       y       z     vdW  Elec       q    Type
REMARK                         _______ _______ _______ _____ _____    ______ ____
ROOT
ATOM      1  O   HOH     1     -19.028   9.438 -14.453  0.00  0.00    +0.000 OA
ENDROOT
TORSDOF 0
REMARK  Name = ../refined-set-2016/2nmx/2nmx_pocket.pdb
REMARK  157 active torsions:
REMARK  status: ('A' for Active; 'I' for Inactive)
REMARK    1  A    between atoms: _1  and  _3
REMARK    2  A    between atoms: _3  and  _4
REMARK    3  A    between atoms: _3  and  _6
REMARK    4  A    between atoms: _6  and  _7
REMARK    5  A    between atoms: _17  and  _19
REMARK    6  A    between atoms: _19  and  _20
REMARK    7  A    between atoms: _19  and  _22
REMARK    8  A    between atoms: _22  and  _23
REMARK    9  A    between atoms: _28  and  _29
REMARK   10  A    between atoms: _31  and  _33
REMARK   11  A    between atoms: _33  and  _34
REMARK   12  A    between atoms: _33  and  _36
REMARK   13  A    between atoms: _36  and  _37
REMARK   14  A    between atoms: _40  and  _41
REMARK   15  A    between atoms: _46  and  _48
REMARK   16  A    between atoms: _48  and  _49
REMARK   17  A    between atoms: _48  and  _51
REMARK   18  A    between atoms: _54  and  _56
REMARK   19  A    between atoms: _56  and  _57
REMARK   20  A    between atoms: _56  and  _59
REMARK   21  A    between atoms: _59  and  _60
REMARK   22  A    between atoms: _65  and  _67
REMARK   23  A    between atoms: _67  and  _68
REMARK   24  A    between atoms: _67  and  _70
REMARK   25  A    between atoms: _70  and  _71
REMARK   26  A    between atoms: _73  and  _75
REMARK   27  A    between atoms: _75  and  _76
REMARK   28  A    between atoms: _75  and  _78
REMARK   29  A    between atoms: _78  and  _79
REMARK   30  A    between atoms: _84  and  _86
REMARK   31  A    between atoms: _86  and  _87
REMARK   32  A    between atoms: _86  and  _89
REMARK   33  A    between atoms: _89  and  _90
REMARK   34  A    between atoms: _95  and  _97
REMARK   35  A    between atoms: _97  and  _98
REMARK   36  A    between atoms: _97  and  _100
REMARK   37  A    between atoms: _100  and  _101
REMARK   38  A    between atoms: _107  and  _109
REMARK   39  A    between atoms: _109  and  _110
REMARK   40  A    between atoms: _109  and  _112
REMARK   41  A    between atoms: _112  and  _113
REMARK   42  A    between atoms: _119  and  _121
REMARK   43  A    between atoms: _121  and  _122
REMARK   44  A    between atoms: _121  and  _124
REMARK   45  A    between atoms: _124  and  _125
REMARK   46  A    between atoms: _125  and  _126
REMARK   47  A    between atoms: _131  and  _133
REMARK   48  A    between atoms: _133  and  _134
REMARK   49  A    between atoms: _133  and  _136
REMARK   50  A    between atoms: _136  and  _137
REMARK   51  A    between atoms: _143  and  _145
REMARK   52  A    between atoms: _156  and  _159
REMARK   53  A    between atoms: _159  and  _160
REMARK   54  A    between atoms: _168  and  _169
REMARK   55  A    between atoms: _177  and  _179
REMARK   56  A    between atoms: _179  and  _180
REMARK   57  A    between atoms: _179  and  _182
REMARK   58  A    between atoms: _182  and  _183
REMARK   59  A    between atoms: _183  and  _184
REMARK   60  A    between atoms: _187  and  _189
REMARK   61  A    between atoms: _189  and  _190
REMARK   62  A    between atoms: _189  and  _192
REMARK   63  A    between atoms: _192  and  _193
REMARK   64  A    between atoms: _198  and  _200
REMARK   65  A    between atoms: _200  and  _201
REMARK   66  A    between atoms: _200  and  _203
REMARK   67  A    between atoms: _203  and  _204
REMARK   68  A    between atoms: _204  and  _205
REMARK   69  A    between atoms: _208  and  _210
REMARK   70  A    between atoms: _210  and  _211
REMARK   71  A    between atoms: _210  and  _213
REMARK   72  A    between atoms: _213  and  _214
REMARK   73  A    between atoms: _217  and  _219
REMARK   74  A    between atoms: _219  and  _220
REMARK   75  A    between atoms: _219  and  _222
REMARK   76  A    between atoms: _222  and  _223
REMARK   77  A    between atoms: _224  and  ZN_444
REMARK   78  A    between atoms: _228  and  _230
REMARK   79  A    between atoms: _230  and  _231
REMARK   80  A    between atoms: _230  and  _233
REMARK   81  A    between atoms: _236  and  _238
REMARK   82  A    between atoms: _238  and  _239
REMARK   83  A    between atoms: _242  and  _244
REMARK   84  A    between atoms: _244  and  _245
REMARK   85  A    between atoms: _244  and  _247
REMARK   86  A    between atoms: _247  and  _248
REMARK   87  A    between atoms: _253  and  _255
REMARK   88  A    between atoms: _255  and  _256
REMARK   89  A    between atoms: _255  and  _258
REMARK   90  A    between atoms: _258  and  _259
REMARK   91  A    between atoms: _262  and  _264
REMARK   92  A    between atoms: _264  and  _265
REMARK   93  A    between atoms: _268  and  _270
REMARK   94  A    between atoms: _270  and  _271
REMARK   95  A    between atoms: _270  and  _273
REMARK   96  A    between atoms: _273  and  _274
REMARK   97  A    between atoms: _277  and  _279
REMARK   98  A    between atoms: _279  and  _280
REMARK   99  A    between atoms: _283  and  _285
REMARK  100  A    between atoms: _285  and  _286
REMARK  101  A    between atoms: _285  and  _288
REMARK  102  A    between atoms: _291  and  _293
REMARK  103  A    between atoms: _293  and  _294
REMARK  104  A    between atoms: _293  and  _296
REMARK  105  A    between atoms: _296  and  _297
REMARK  106  A    between atoms: _300  and  _302
REMARK  107  A    between atoms: _302  and  _303
REMARK  108  A    between atoms: _305  and  _307
REMARK  109  A    between atoms: _307  and  _308
REMARK  110  A    between atoms: _310  and  _312
REMARK  111  A    between atoms: _312  and  _313
REMARK  112  A    between atoms: _312  and  _315
REMARK  113  A    between atoms: _315  and  _316
REMARK  114  A    between atoms: _318  and  _320
REMARK  115  A    between atoms: _320  and  _321
REMARK  116  A    between atoms: _320  and  _323
REMARK  117  A    between atoms: _323  and  _324
REMARK  118  A    between atoms: _327  and  _329
REMARK  119  A    between atoms: _329  and  _330
REMARK  120  A    between atoms: _329  and  _332
REMARK  121  A    between atoms: _332  and  _333
REMARK  122  A    between atoms: _336  and  _338
REMARK  123  A    between atoms: _338  and  _339
REMARK  124  A    between atoms: _338  and  _341
REMARK  125  A    between atoms: _341  and  _342
REMARK  126  A    between atoms: _348  and  _349
REMARK  127  A    between atoms: _355  and  _356
REMARK  128  A    between atoms: _361  and  _363
REMARK  129  A    between atoms: _363  and  _364
REMARK  130  A    between atoms: _363  and  _366
REMARK  131  A    between atoms: _366  and  _367
REMARK  132  A    between atoms: _370  and  _372
REMARK  133  A    between atoms: _372  and  _373
REMARK  134  A    between atoms: _372  and  _375
REMARK  135  A    between atoms: _375  and  _376
REMARK  136  A    between atoms: _381  and  _382
REMARK  137  A    between atoms: _384  and  _386
REMARK  138  A    between atoms: _386  and  _387
REMARK  139  A    between atoms: _386  and  _389
REMARK  140  A    between atoms: _389  and  _390
REMARK  141  A    between atoms: _392  and  _394
REMARK  142  A    between atoms: _394  and  _395
REMARK  143  A    between atoms: _394  and  _397
REMARK  144  A    between atoms: _400  and  _402
REMARK  145  A    between atoms: _402  and  _403
REMARK  146  A    between atoms: _402  and  _405
REMARK  147  A    between atoms: _405  and  _406
REMARK  148  A    between atoms: _416  and  _418
REMARK  149  A    between atoms: _418  and  _419
REMARK  150  A    between atoms: _418  and  _421
REMARK  151  A    between atoms: _421  and  _422
REMARK  152  A    between atoms: _427  and  _429
REMARK  153  A    between atoms: _429  and  _430
REMARK  154  A    between atoms: _429  and  _432
REMARK  155  A    between atoms: _432  and  _433
REMARK  156  A    between atoms: _433  and  _434
REMARK  157  A    between atoms: _434  and  _435
REMARK                            x       y       z     vdW  Elec       q    Type
REMARK                         _______ _______ _______ _____ _____    ______ ____
ROOT
ATOM      1  O   HOH     1     -18.040  -2.513 -12.075  0.00  0.00    +0.000 OA
ENDROOT
TORSDOF 0
REMARK  Name = ../refined-set-2016/2nmx/2nmx_pocket.pdb
REMARK  157 active torsions:
REMARK  status: ('A' for Active; 'I' for Inactive)
REMARK    1  A    between atoms: _1  and  _3
REMARK    2  A    between atoms: _3  and  _4
REMARK    3  A    between atoms: _3  and  _6
REMARK    4  A    between atoms: _6  and  _7
REMARK    5  A    between atoms: _17  and  _19
REMARK    6  A    between atoms: _19  and  _20
REMARK    7  A    between atoms: _19  and  _22
REMARK    8  A    between atoms: _22  and  _23
REMARK    9  A    between atoms: _28  and  _29
REMARK   10  A    between atoms: _31  and  _33
REMARK   11  A    between atoms: _33  and  _34
REMARK   12  A    between atoms: _33  and  _36
REMARK   13  A    between atoms: _36  and  _37
REMARK   14  A    between atoms: _40  and  _41
REMARK   15  A    between atoms: _46  and  _48
REMARK   16  A    between atoms: _48  and  _49
REMARK   17  A    between atoms: _48  and  _51
REMARK   18  A    between atoms: _54  and  _56
REMARK   19  A    between atoms: _56  and  _57
REMARK   20  A    between atoms: _56  and  _59
REMARK   21  A    between atoms: _59  and  _60
REMARK   22  A    between atoms: _65  and  _67
REMARK   23  A    between atoms: _67  and  _68
REMARK   24  A    between atoms: _67  and  _70
REMARK   25  A    between atoms: _70  and  _71
REMARK   26  A    between atoms: _73  and  _75
REMARK   27  A    between atoms: _75  and  _76
REMARK   28  A    between atoms: _75  and  _78
REMARK   29  A    between atoms: _78  and  _79
REMARK   30  A    between atoms: _84  and  _86
REMARK   31  A    between atoms: _86  and  _87
REMARK   32  A    between atoms: _86  and  _89
REMARK   33  A    between atoms: _89  and  _90
REMARK   34  A    between atoms: _95  and  _97
REMARK   35  A    between atoms: _97  and  _98
REMARK   36  A    between atoms: _97  and  _100
REMARK   37  A    between atoms: _100  and  _101
REMARK   38  A    between atoms: _107  and  _109
REMARK   39  A    between atoms: _109  and  _110
REMARK   40  A    between atoms: _109  and  _112
REMARK   41  A    between atoms: _112  and  _113
REMARK   42  A    between atoms: _119  and  _121
REMARK   43  A    between atoms: _121  and  _122
REMARK   44  A    between atoms: _121  and  _124
REMARK   45  A    between atoms: _124  and  _125
REMARK   46  A    between atoms: _125  and  _126
REMARK   47  A    between atoms: _131  and  _133
REMARK   48  A    between atoms: _133  and  _134
REMARK   49  A    between atoms: _133  and  _136
REMARK   50  A    between atoms: _136  and  _137
REMARK   51  A    between atoms: _143  and  _145
REMARK   52  A    between atoms: _156  and  _159
REMARK   53  A    between atoms: _159  and  _160
REMARK   54  A    between atoms: _168  and  _169
REMARK   55  A    between atoms: _177  and  _179
REMARK   56  A    between atoms: _179  and  _180
REMARK   57  A    between atoms: _179  and  _182
REMARK   58  A    between atoms: _182  and  _183
REMARK   59  A    between atoms: _183  and  _184
REMARK   60  A    between atoms: _187  and  _189
REMARK   61  A    between atoms: _189  and  _190
REMARK   62  A    between atoms: _189  and  _192
REMARK   63  A    between atoms: _192  and  _193
REMARK   64  A    between atoms: _198  and  _200
REMARK   65  A    between atoms: _200  and  _201
REMARK   66  A    between atoms: _200  and  _203
REMARK   67  A    between atoms: _203  and  _204
REMARK   68  A    between atoms: _204  and  _205
REMARK   69  A    between atoms: _208  and  _210
REMARK   70  A    between atoms: _210  and  _211
REMARK   71  A    between atoms: _210  and  _213
REMARK   72  A    between atoms: _213  and  _214
REMARK   73  A    between atoms: _217  and  _219
REMARK   74  A    between atoms: _219  and  _220
REMARK   75  A    between atoms: _219  and  _222
REMARK   76  A    between atoms: _222  and  _223
REMARK   77  A    between atoms: _224  and  ZN_444
REMARK   78  A    between atoms: _228  and  _230
REMARK   79  A    between atoms: _230  and  _231
REMARK   80  A    between atoms: _230  and  _233
REMARK   81  A    between atoms: _236  and  _238
REMARK   82  A    between atoms: _238  and  _239
REMARK   83  A    between atoms: _242  and  _244
REMARK   84  A    between atoms: _244  and  _245
REMARK   85  A    between atoms: _244  and  _247
REMARK   86  A    between atoms: _247  and  _248
REMARK   87  A    between atoms: _253  and  _255
REMARK   88  A    between atoms: _255  and  _256
REMARK   89  A    between atoms: _255  and  _258
REMARK   90  A    between atoms: _258  and  _259
REMARK   91  A    between atoms: _262  and  _264
REMARK   92  A    between atoms: _264  and  _265
REMARK   93  A    between atoms: _268  and  _270
REMARK   94  A    between atoms: _270  and  _271
REMARK   95  A    between atoms: _270  and  _273
REMARK   96  A    between atoms: _273  and  _274
REMARK   97  A    between atoms: _277  and  _279
REMARK   98  A    between atoms: _279  and  _280
REMARK   99  A    between atoms: _283  and  _285
REMARK  100  A    between atoms: _285  and  _286
REMARK  101  A    between atoms: _285  and  _288
REMARK  102  A    between atoms: _291  and  _293
REMARK  103  A    between atoms: _293  and  _294
REMARK  104  A    between atoms: _293  and  _296
REMARK  105  A    between atoms: _296  and  _297
REMARK  106  A    between atoms: _300  and  _302
REMARK  107  A    between atoms: _302  and  _303
REMARK  108  A    between atoms: _305  and  _307
REMARK  109  A    between atoms: _307  and  _308
REMARK  110  A    between atoms: _310  and  _312
REMARK  111  A    between atoms: _312  and  _313
REMARK  112  A    between atoms: _312  and  _315
REMARK  113  A    between atoms: _315  and  _316
REMARK  114  A    between atoms: _318  and  _320
REMARK  115  A    between atoms: _320  and  _321
REMARK  116  A    between atoms: _320  and  _323
REMARK  117  A    between atoms: _323  and  _324
REMARK  118  A    between atoms: _327  and  _329
REMARK  119  A    between atoms: _329  and  _330
REMARK  120  A    between atoms: _329  and  _332
REMARK  121  A    between atoms: _332  and  _333
REMARK  122  A    between atoms: _336  and  _338
REMARK  123  A    between atoms: _338  and  _339
REMARK  124  A    between atoms: _338  and  _341
REMARK  125  A    between atoms: _341  and  _342
REMARK  126  A    between atoms: _348  and  _349
REMARK  127  A    between atoms: _355  and  _356
REMARK  128  A    between atoms: _361  and  _363
REMARK  129  A    between atoms: _363  and  _364
REMARK  130  A    between atoms: _363  and  _366
REMARK  131  A    between atoms: _366  and  _367
REMARK  132  A    between atoms: _370  and  _372
REMARK  133  A    between atoms: _372  and  _373
REMARK  134  A    between atoms: _372  and  _375
REMARK  135  A    between atoms: _375  and  _376
REMARK  136  A    between atoms: _381  and  _382
REMARK  137  A    between atoms: _384  and  _386
REMARK  138  A    between atoms: _386  and  _387
REMARK  139  A    between atoms: _386  and  _389
REMARK  140  A    between atoms: _389  and  _390
REMARK  141  A    between atoms: _392  and  _394
REMARK  142  A    between atoms: _394  and  _395
REMARK  143  A    between atoms: _394  and  _397
REMARK  144  A    between atoms: _400  and  _402
REMARK  145  A    between atoms: _402  and  _403
REMARK  146  A    between atoms: _402  and  _405
REMARK  147  A    between atoms: _405  and  _406
REMARK  148  A    between atoms: _416  and  _418
REMARK  149  A    between atoms: _418  and  _419
REMARK  150  A    between atoms: _418  and  _421
REMARK  151  A    between atoms: _421  and  _422
REMARK  152  A    between atoms: _427  and  _429
REMARK  153  A    between atoms: _429  and  _430
REMARK  154  A    between atoms: _429  and  _432
REMARK  155  A    between atoms: _432  and  _433
REMARK  156  A    between atoms: _433  and  _434
REMARK  157  A    between atoms: _434  and  _435
REMARK                            x       y       z     vdW  Elec       q    Type
REMARK                         _______ _______ _______ _____ _____    ______ ____
ROOT
ATOM      1  O   HOH     1     -18.430  -4.360  -9.302  0.00  0.00    +0.000 OA
ENDROOT
TORSDOF 0
REMARK  Name = ../refined-set-2016/2nmx/2nmx_pocket.pdb
REMARK  157 active torsions:
REMARK  status: ('A' for Active; 'I' for Inactive)
REMARK    1  A    between atoms: _1  and  _3
REMARK    2  A    between atoms: _3  and  _4
REMARK    3  A    between atoms: _3  and  _6
REMARK    4  A    between atoms: _6  and  _7
REMARK    5  A    between atoms: _17  and  _19
REMARK    6  A    between atoms: _19  and  _20
REMARK    7  A    between atoms: _19  and  _22
REMARK    8  A    between atoms: _22  and  _23
REMARK    9  A    between atoms: _28  and  _29
REMARK   10  A    between atoms: _31  and  _33
REMARK   11  A    between atoms: _33  and  _34
REMARK   12  A    between atoms: _33  and  _36
REMARK   13  A    between atoms: _36  and  _37
REMARK   14  A    between atoms: _40  and  _41
REMARK   15  A    between atoms: _46  and  _48
REMARK   16  A    between atoms: _48  and  _49
REMARK   17  A    between atoms: _48  and  _51
REMARK   18  A    between atoms: _54  and  _56
REMARK   19  A    between atoms: _56  and  _57
REMARK   20  A    between atoms: _56  and  _59
REMARK   21  A    between atoms: _59  and  _60
REMARK   22  A    between atoms: _65  and  _67
REMARK   23  A    between atoms: _67  and  _68
REMARK   24  A    between atoms: _67  and  _70
REMARK   25  A    between atoms: _70  and  _71
REMARK   26  A    between atoms: _73  and  _75
REMARK   27  A    between atoms: _75  and  _76
REMARK   28  A    between atoms: _75  and  _78
REMARK   29  A    between atoms: _78  and  _79
REMARK   30  A    between atoms: _84  and  _86
REMARK   31  A    between atoms: _86  and  _87
REMARK   32  A    between atoms: _86  and  _89
REMARK   33  A    between atoms: _89  and  _90
REMARK   34  A    between atoms: _95  and  _97
REMARK   35  A    between atoms: _97  and  _98
REMARK   36  A    between atoms: _97  and  _100
REMARK   37  A    between atoms: _100  and  _101
REMARK   38  A    between atoms: _107  and  _109
REMARK   39  A    between atoms: _109  and  _110
REMARK   40  A    between atoms: _109  and  _112
REMARK   41  A    between atoms: _112  and  _113
REMARK   42  A    between atoms: _119  and  _121
REMARK   43  A    between atoms: _121  and  _122
REMARK   44  A    between atoms: _121  and  _124
REMARK   45  A    between atoms: _124  and  _125
REMARK   46  A    between atoms: _125  and  _126
REMARK   47  A    between atoms: _131  and  _133
REMARK   48  A    between atoms: _133  and  _134
REMARK   49  A    between atoms: _133  and  _136
REMARK   50  A    between atoms: _136  and  _137
REMARK   51  A    between atoms: _143  and  _145
REMARK   52  A    between atoms: _156  and  _159
REMARK   53  A    between atoms: _159  and  _160
REMARK   54  A    between atoms: _168  and  _169
REMARK   55  A    between atoms: _177  and  _179
REMARK   56  A    between atoms: _179  and  _180
REMARK   57  A    between atoms: _179  and  _182
REMARK   58  A    between atoms: _182  and  _183
REMARK   59  A    between atoms: _183  and  _184
REMARK   60  A    between atoms: _187  and  _189
REMARK   61  A    between atoms: _189  and  _190
REMARK   62  A    between atoms: _189  and  _192
REMARK   63  A    between atoms: _192  and  _193
REMARK   64  A    between atoms: _198  and  _200
REMARK   65  A    between atoms: _200  and  _201
REMARK   66  A    between atoms: _200  and  _203
REMARK   67  A    between atoms: _203  and  _204
REMARK   68  A    between atoms: _204  and  _205
REMARK   69  A    between atoms: _208  and  _210
REMARK   70  A    between atoms: _210  and  _211
REMARK   71  A    between atoms: _210  and  _213
REMARK   72  A    between atoms: _213  and  _214
REMARK   73  A    between atoms: _217  and  _219
REMARK   74  A    between atoms: _219  and  _220
REMARK   75  A    between atoms: _219  and  _222
REMARK   76  A    between atoms: _222  and  _223
REMARK   77  A    between atoms: _224  and  ZN_444
REMARK   78  A    between atoms: _228  and  _230
REMARK   79  A    between atoms: _230  and  _231
REMARK   80  A    between atoms: _230  and  _233
REMARK   81  A    between atoms: _236  and  _238
REMARK   82  A    between atoms: _238  and  _239
REMARK   83  A    between atoms: _242  and  _244
REMARK   84  A    between atoms: _244  and  _245
REMARK   85  A    between atoms: _244  and  _247
REMARK   86  A    between atoms: _247  and  _248
REMARK   87  A    between atoms: _253  and  _255
REMARK   88  A    between atoms: _255  and  _256
REMARK   89  A    between atoms: _255  and  _258
REMARK   90  A    between atoms: _258  and  _259
REMARK   91  A    between atoms: _262  and  _264
REMARK   92  A    between atoms: _264  and  _265
REMARK   93  A    between atoms: _268  and  _270
REMARK   94  A    between atoms: _270  and  _271
REMARK   95  A    between atoms: _270  and  _273
REMARK   96  A    between atoms: _273  and  _274
REMARK   97  A    between atoms: _277  and  _279
REMARK   98  A    between atoms: _279  and  _280
REMARK   99  A    between atoms: _283  and  _285
REMARK  100  A    between atoms: _285  and  _286
REMARK  101  A    between atoms: _285  and  _288
REMARK  102  A    between atoms: _291  and  _293
REMARK  103  A    between atoms: _293  and  _294
REMARK  104  A    between atoms: _293  and  _296
REMARK  105  A    between atoms: _296  and  _297
REMARK  106  A    between atoms: _300  and  _302
REMARK  107  A    between atoms: _302  and  _303
REMARK  108  A    between atoms: _305  and  _307
REMARK  109  A    between atoms: _307  and  _308
REMARK  110  A    between atoms: _310  and  _312
REMARK  111  A    between atoms: _312  and  _313
REMARK  112  A    between atoms: _312  and  _315
REMARK  113  A    between atoms: _315  and  _316
REMARK  114  A    between atoms: _318  and  _320
REMARK  115  A    between atoms: _320  and  _321
REMARK  116  A    between atoms: _320  and  _323
REMARK  117  A    between atoms: _323  and  _324
REMARK  118  A    between atoms: _327  and  _329
REMARK  119  A    between atoms: _329  and  _330
REMARK  120  A    between atoms: _329  and  _332
REMARK  121  A    between atoms: _332  and  _333
REMARK  122  A    between atoms: _336  and  _338
REMARK  123  A    between atoms: _338  and  _339
REMARK  124  A    between atoms: _338  and  _341
REMARK  125  A    between atoms: _341  and  _342
REMARK  126  A    between atoms: _348  and  _349
REMARK  127  A    between atoms: _355  and  _356
REMARK  128  A    between atoms: _361  and  _363
REMARK  129  A    between atoms: _363  and  _364
REMARK  130  A    between atoms: _363  and  _366
REMARK  131  A    between atoms: _366  and  _367
REMARK  132  A    between atoms: _370  and  _372
REMARK  133  A    between atoms: _372  and  _373
REMARK  134  A    between atoms: _372  and  _375
REMARK  135  A    between atoms: _375  and  _376
REMARK  136  A    between atoms: _381  and  _382
REMARK  137  A    between atoms: _384  and  _386
REMARK  138  A    between atoms: _386  and  _387
REMARK  139  A    between atoms: _386  and  _389
REMARK  140  A    between atoms: _389  and  _390
REMARK  141  A    between atoms: _392  and  _394
REMARK  142  A    between atoms: _394  and  _395
REMARK  143  A    between atoms: _394  and  _397
REMARK  144  A    between atoms: _400  and  _402
REMARK  145  A    between atoms: _402  and  _403
REMARK  146  A    between atoms: _402  and  _405
REMARK  147  A    between atoms: _405  and  _406
REMARK  148  A    between atoms: _416  and  _418
REMARK  149  A    between atoms: _418  and  _419
REMARK  150  A    between atoms: _418  and  _421
REMARK  151  A    between atoms: _421  and  _422
REMARK  152  A    between atoms: _427  and  _429
REMARK  153  A    between atoms: _429  and  _430
REMARK  154  A    between atoms: _429  and  _432
REMARK  155  A    between atoms: _432  and  _433
REMARK  156  A    between atoms: _433  and  _434
REMARK  157  A    between atoms: _434  and  _435
REMARK                            x       y       z     vdW  Elec       q    Type
REMARK                         _______ _______ _______ _____ _____    ______ ____
ROOT
ATOM      1  O   HOH     1     -16.908   6.058 -11.272  0.00  0.00    +0.000 OA
ENDROOT
TORSDOF 0
REMARK  Name = ../refined-set-2016/2nmx/2nmx_pocket.pdb
REMARK  157 active torsions:
REMARK  status: ('A' for Active; 'I' for Inactive)
REMARK    1  A    between atoms: _1  and  _3
REMARK    2  A    between atoms: _3  and  _4
REMARK    3  A    between atoms: _3  and  _6
REMARK    4  A    between atoms: _6  and  _7
REMARK    5  A    between atoms: _17  and  _19
REMARK    6  A    between atoms: _19  and  _20
REMARK    7  A    between atoms: _19  and  _22
REMARK    8  A    between atoms: _22  and  _23
REMARK    9  A    between atoms: _28  and  _29
REMARK   10  A    between atoms: _31  and  _33
REMARK   11  A    between atoms: _33  and  _34
REMARK   12  A    between atoms: _33  and  _36
REMARK   13  A    between atoms: _36  and  _37
REMARK   14  A    between atoms: _40  and  _41
REMARK   15  A    between atoms: _46  and  _48
REMARK   16  A    between atoms: _48  and  _49
REMARK   17  A    between atoms: _48  and  _51
REMARK   18  A    between atoms: _54  and  _56
REMARK   19  A    between atoms: _56  and  _57
REMARK   20  A    between atoms: _56  and  _59
REMARK   21  A    between atoms: _59  and  _60
REMARK   22  A    between atoms: _65  and  _67
REMARK   23  A    between atoms: _67  and  _68
REMARK   24  A    between atoms: _67  and  _70
REMARK   25  A    between atoms: _70  and  _71
REMARK   26  A    between atoms: _73  and  _75
REMARK   27  A    between atoms: _75  and  _76
REMARK   28  A    between atoms: _75  and  _78
REMARK   29  A    between atoms: _78  and  _79
REMARK   30  A    between atoms: _84  and  _86
REMARK   31  A    between atoms: _86  and  _87
REMARK   32  A    between atoms: _86  and  _89
REMARK   33  A    between atoms: _89  and  _90
REMARK   34  A    between atoms: _95  and  _97
REMARK   35  A    between atoms: _97  and  _98
REMARK   36  A    between atoms: _97  and  _100
REMARK   37  A    between atoms: _100  and  _101
REMARK   38  A    between atoms: _107  and  _109
REMARK   39  A    between atoms: _109  and  _110
REMARK   40  A    between atoms: _109  and  _112
REMARK   41  A    between atoms: _112  and  _113
REMARK   42  A    between atoms: _119  and  _121
REMARK   43  A    between atoms: _121  and  _122
REMARK   44  A    between atoms: _121  and  _124
REMARK   45  A    between atoms: _124  and  _125
REMARK   46  A    between atoms: _125  and  _126
REMARK   47  A    between atoms: _131  and  _133
REMARK   48  A    between atoms: _133  and  _134
REMARK   49  A    between atoms: _133  and  _136
REMARK   50  A    between atoms: _136  and  _137
REMARK   51  A    between atoms: _143  and  _145
REMARK   52  A    between atoms: _156  and  _159
REMARK   53  A    between atoms: _159  and  _160
REMARK   54  A    between atoms: _168  and  _169
REMARK   55  A    between atoms: _177  and  _179
REMARK   56  A    between atoms: _179  and  _180
REMARK   57  A    between atoms: _179  and  _182
REMARK   58  A    between atoms: _182  and  _183
REMARK   59  A    between atoms: _183  and  _184
REMARK   60  A    between atoms: _187  and  _189
REMARK   61  A    between atoms: _189  and  _190
REMARK   62  A    between atoms: _189  and  _192
REMARK   63  A    between atoms: _192  and  _193
REMARK   64  A    between atoms: _198  and  _200
REMARK   65  A    between atoms: _200  and  _201
REMARK   66  A    between atoms: _200  and  _203
REMARK   67  A    between atoms: _203  and  _204
REMARK   68  A    between atoms: _204  and  _205
REMARK   69  A    between atoms: _208  and  _210
REMARK   70  A    between atoms: _210  and  _211
REMARK   71  A    between atoms: _210  and  _213
REMARK   72  A    between atoms: _213  and  _214
REMARK   73  A    between atoms: _217  and  _219
REMARK   74  A    between atoms: _219  and  _220
REMARK   75  A    between atoms: _219  and  _222
REMARK   76  A    between atoms: _222  and  _223
REMARK   77  A    between atoms: _224  and  ZN_444
REMARK   78  A    between atoms: _228  and  _230
REMARK   79  A    between atoms: _230  and  _231
REMARK   80  A    between atoms: _230  and  _233
REMARK   81  A    between atoms: _236  and  _238
REMARK   82  A    between atoms: _238  and  _239
REMARK   83  A    between atoms: _242  and  _244
REMARK   84  A    between atoms: _244  and  _245
REMARK   85  A    between atoms: _244  and  _247
REMARK   86  A    between atoms: _247  and  _248
REMARK   87  A    between atoms: _253  and  _255
REMARK   88  A    between atoms: _255  and  _256
REMARK   89  A    between atoms: _255  and  _258
REMARK   90  A    between atoms: _258  and  _259
REMARK   91  A    between atoms: _262  and  _264
REMARK   92  A    between atoms: _264  and  _265
REMARK   93  A    between atoms: _268  and  _270
REMARK   94  A    between atoms: _270  and  _271
REMARK   95  A    between atoms: _270  and  _273
REMARK   96  A    between atoms: _273  and  _274
REMARK   97  A    between atoms: _277  and  _279
REMARK   98  A    between atoms: _279  and  _280
REMARK   99  A    between atoms: _283  and  _285
REMARK  100  A    between atoms: _285  and  _286
REMARK  101  A    between atoms: _285  and  _288
REMARK  102  A    between atoms: _291  and  _293
REMARK  103  A    between atoms: _293  and  _294
REMARK  104  A    between atoms: _293  and  _296
REMARK  105  A    between atoms: _296  and  _297
REMARK  106  A    between atoms: _300  and  _302
REMARK  107  A    between atoms: _302  and  _303
REMARK  108  A    between atoms: _305  and  _307
REMARK  109  A    between atoms: _307  and  _308
REMARK  110  A    between atoms: _310  and  _312
REMARK  111  A    between atoms: _312  and  _313
REMARK  112  A    between atoms: _312  and  _315
REMARK  113  A    between atoms: _315  and  _316
REMARK  114  A    between atoms: _318  and  _320
REMARK  115  A    between atoms: _320  and  _321
REMARK  116  A    between atoms: _320  and  _323
REMARK  117  A    between atoms: _323  and  _324
REMARK  118  A    between atoms: _327  and  _329
REMARK  119  A    between atoms: _329  and  _330
REMARK  120  A    between atoms: _329  and  _332
REMARK  121  A    between atoms: _332  and  _333
REMARK  122  A    between atoms: _336  and  _338
REMARK  123  A    between atoms: _338  and  _339
REMARK  124  A    between atoms: _338  and  _341
REMARK  125  A    between atoms: _341  and  _342
REMARK  126  A    between atoms: _348  and  _349
REMARK  127  A    between atoms: _355  and  _356
REMARK  128  A    between atoms: _361  and  _363
REMARK  129  A    between atoms: _363  and  _364
REMARK  130  A    between atoms: _363  and  _366
REMARK  131  A    between atoms: _366  and  _367
REMARK  132  A    between atoms: _370  and  _372
REMARK  133  A    between atoms: _372  and  _373
REMARK  134  A    between atoms: _372  and  _375
REMARK  135  A    between atoms: _375  and  _376
REMARK  136  A    between atoms: _381  and  _382
REMARK  137  A    between atoms: _384  and  _386
REMARK  138  A    between atoms: _386  and  _387
REMARK  139  A    between atoms: _386  and  _389
REMARK  140  A    between atoms: _389  and  _390
REMARK  141  A    between atoms: _392  and  _394
REMARK  142  A    between atoms: _394  and  _395
REMARK  143  A    between atoms: _394  and  _397
REMARK  144  A    between atoms: _400  and  _402
REMARK  145  A    between atoms: _402  and  _403
REMARK  146  A    between atoms: _402  and  _405
REMARK  147  A    between atoms: _405  and  _406
REMARK  148  A    between atoms: _416  and  _418
REMARK  149  A    between atoms: _418  and  _419
REMARK  150  A    between atoms: _418  and  _421
REMARK  151  A    between atoms: _421  and  _422
REMARK  152  A    between atoms: _427  and  _429
REMARK  153  A    between atoms: _429  and  _430
REMARK  154  A    between atoms: _429  and  _432
REMARK  155  A    between atoms: _432  and  _433
REMARK  156  A    between atoms: _433  and  _434
REMARK  157  A    between atoms: _434  and  _435
REMARK                            x       y       z     vdW  Elec       q    Type
REMARK                         _______ _______ _______ _____ _____    ______ ____
ROOT
ATOM      1  O   HOH     1     -21.791   9.599 -14.486  0.00  0.00    +0.000 OA
ENDROOT
TORSDOF 0
REMARK  Name = ../refined-set-2016/2nmx/2nmx_pocket.pdb
REMARK  157 active torsions:
REMARK  status: ('A' for Active; 'I' for Inactive)
REMARK    1  A    between atoms: _1  and  _3
REMARK    2  A    between atoms: _3  and  _4
REMARK    3  A    between atoms: _3  and  _6
REMARK    4  A    between atoms: _6  and  _7
REMARK    5  A    between atoms: _17  and  _19
REMARK    6  A    between atoms: _19  and  _20
REMARK    7  A    between atoms: _19  and  _22
REMARK    8  A    between atoms: _22  and  _23
REMARK    9  A    between atoms: _28  and  _29
REMARK   10  A    between atoms: _31  and  _33
REMARK   11  A    between atoms: _33  and  _34
REMARK   12  A    between atoms: _33  and  _36
REMARK   13  A    between atoms: _36  and  _37
REMARK   14  A    between atoms: _40  and  _41
REMARK   15  A    between atoms: _46  and  _48
REMARK   16  A    between atoms: _48  and  _49
REMARK   17  A    between atoms: _48  and  _51
REMARK   18  A    between atoms: _54  and  _56
REMARK   19  A    between atoms: _56  and  _57
REMARK   20  A    between atoms: _56  and  _59
REMARK   21  A    between atoms: _59  and  _60
REMARK   22  A    between atoms: _65  and  _67
REMARK   23  A    between atoms: _67  and  _68
REMARK   24  A    between atoms: _67  and  _70
REMARK   25  A    between atoms: _70  and  _71
REMARK   26  A    between atoms: _73  and  _75
REMARK   27  A    between atoms: _75  and  _76
REMARK   28  A    between atoms: _75  and  _78
REMARK   29  A    between atoms: _78  and  _79
REMARK   30  A    between atoms: _84  and  _86
REMARK   31  A    between atoms: _86  and  _87
REMARK   32  A    between atoms: _86  and  _89
REMARK   33  A    between atoms: _89  and  _90
REMARK   34  A    between atoms: _95  and  _97
REMARK   35  A    between atoms: _97  and  _98
REMARK   36  A    between atoms: _97  and  _100
REMARK   37  A    between atoms: _100  and  _101
REMARK   38  A    between atoms: _107  and  _109
REMARK   39  A    between atoms: _109  and  _110
REMARK   40  A    between atoms: _109  and  _112
REMARK   41  A    between atoms: _112  and  _113
REMARK   42  A    between atoms: _119  and  _121
REMARK   43  A    between atoms: _121  and  _122
REMARK   44  A    between atoms: _121  and  _124
REMARK   45  A    between atoms: _124  and  _125
REMARK   46  A    between atoms: _125  and  _126
REMARK   47  A    between atoms: _131  and  _133
REMARK   48  A    between atoms: _133  and  _134
REMARK   49  A    between atoms: _133  and  _136
REMARK   50  A    between atoms: _136  and  _137
REMARK   51  A    between atoms: _143  and  _145
REMARK   52  A    between atoms: _156  and  _159
REMARK   53  A    between atoms: _159  and  _160
REMARK   54  A    between atoms: _168  and  _169
REMARK   55  A    between atoms: _177  and  _179
REMARK   56  A    between atoms: _179  and  _180
REMARK   57  A    between atoms: _179  and  _182
REMARK   58  A    between atoms: _182  and  _183
REMARK   59  A    between atoms: _183  and  _184
REMARK   60  A    between atoms: _187  and  _189
REMARK   61  A    between atoms: _189  and  _190
REMARK   62  A    between atoms: _189  and  _192
REMARK   63  A    between atoms: _192  and  _193
REMARK   64  A    between atoms: _198  and  _200
REMARK   65  A    between atoms: _200  and  _201
REMARK   66  A    between atoms: _200  and  _203
REMARK   67  A    between atoms: _203  and  _204
REMARK   68  A    between atoms: _204  and  _205
REMARK   69  A    between atoms: _208  and  _210
REMARK   70  A    between atoms: _210  and  _211
REMARK   71  A    between atoms: _210  and  _213
REMARK   72  A    between atoms: _213  and  _214
REMARK   73  A    between atoms: _217  and  _219
REMARK   74  A    between atoms: _219  and  _220
REMARK   75  A    between atoms: _219  and  _222
REMARK   76  A    between atoms: _222  and  _223
REMARK   77  A    between atoms: _224  and  ZN_444
REMARK   78  A    between atoms: _228  and  _230
REMARK   79  A    between atoms: _230  and  _231
REMARK   80  A    between atoms: _230  and  _233
REMARK   81  A    between atoms: _236  and  _238
REMARK   82  A    between atoms: _238  and  _239
REMARK   83  A    between atoms: _242  and  _244
REMARK   84  A    between atoms: _244  and  _245
REMARK   85  A    between atoms: _244  and  _247
REMARK   86  A    between atoms: _247  and  _248
REMARK   87  A    between atoms: _253  and  _255
REMARK   88  A    between atoms: _255  and  _256
REMARK   89  A    between atoms: _255  and  _258
REMARK   90  A    between atoms: _258  and  _259
REMARK   91  A    between atoms: _262  and  _264
REMARK   92  A    between atoms: _264  and  _265
REMARK   93  A    between atoms: _268  and  _270
REMARK   94  A    between atoms: _270  and  _271
REMARK   95  A    between atoms: _270  and  _273
REMARK   96  A    between atoms: _273  and  _274
REMARK   97  A    between atoms: _277  and  _279
REMARK   98  A    between atoms: _279  and  _280
REMARK   99  A    between atoms: _283  and  _285
REMARK  100  A    between atoms: _285  and  _286
REMARK  101  A    between atoms: _285  and  _288
REMARK  102  A    between atoms: _291  and  _293
REMARK  103  A    between atoms: _293  and  _294
REMARK  104  A    between atoms: _293  and  _296
REMARK  105  A    between atoms: _296  and  _297
REMARK  106  A    between atoms: _300  and  _302
REMARK  107  A    between atoms: _302  and  _303
REMARK  108  A    between atoms: _305  and  _307
REMARK  109  A    between atoms: _307  and  _308
REMARK  110  A    between atoms: _310  and  _312
REMARK  111  A    between atoms: _312  and  _313
REMARK  112  A    between atoms: _312  and  _315
REMARK  113  A    between atoms: _315  and  _316
REMARK  114  A    between atoms: _318  and  _320
REMARK  115  A    between atoms: _320  and  _321
REMARK  116  A    between atoms: _320  and  _323
REMARK  117  A    between atoms: _323  and  _324
REMARK  118  A    between atoms: _327  and  _329
REMARK  119  A    between atoms: _329  and  _330
REMARK  120  A    between atoms: _329  and  _332
REMARK  121  A    between atoms: _332  and  _333
REMARK  122  A    between atoms: _336  and  _338
REMARK  123  A    between atoms: _338  and  _339
REMARK  124  A    between atoms: _338  and  _341
REMARK  125  A    between atoms: _341  and  _342
REMARK  126  A    between atoms: _348  and  _349
REMARK  127  A    between atoms: _355  and  _356
REMARK  128  A    between atoms: _361  and  _363
REMARK  129  A    between atoms: _363  and  _364
REMARK  130  A    between atoms: _363  and  _366
REMARK  131  A    between atoms: _366  and  _367
REMARK  132  A    between atoms: _370  and  _372
REMARK  133  A    between atoms: _372  and  _373
REMARK  134  A    between atoms: _372  and  _375
REMARK  135  A    between atoms: _375  and  _376
REMARK  136  A    between atoms: _381  and  _382
REMARK  137  A    between atoms: _384  and  _386
REMARK  138  A    between atoms: _386  and  _387
REMARK  139  A    between atoms: _386  and  _389
REMARK  140  A    between atoms: _389  and  _390
REMARK  141  A    between atoms: _392  and  _394
REMARK  142  A    between atoms: _394  and  _395
REMARK  143  A    between atoms: _394  and  _397
REMARK  144  A    between atoms: _400  and  _402
REMARK  145  A    between atoms: _402  and  _403
REMARK  146  A    between atoms: _402  and  _405
REMARK  147  A    between atoms: _405  and  _406
REMARK  148  A    between atoms: _416  and  _418
REMARK  149  A    between atoms: _418  and  _419
REMARK  150  A    between atoms: _418  and  _421
REMARK  151  A    between atoms: _421  and  _422
REMARK  152  A    between atoms: _427  and  _429
REMARK  153  A    between atoms: _429  and  _430
REMARK  154  A    between atoms: _429  and  _432
REMARK  155  A    between atoms: _432  and  _433
REMARK  156  A    between atoms: _433  and  _434
REMARK  157  A    between atoms: _434  and  _435
REMARK                            x       y       z     vdW  Elec       q    Type
REMARK                         _______ _______ _______ _____ _____    ______ ____
ROOT
ATOM      1  O   HOH     1     -19.137   6.744 -13.092  0.00  0.00    +0.000 OA
ENDROOT
TORSDOF 0
REMARK  Name = ../refined-set-2016/2nmx/2nmx_pocket.pdb
REMARK  157 active torsions:
REMARK  status: ('A' for Active; 'I' for Inactive)
REMARK    1  A    between atoms: _1  and  _3
REMARK    2  A    between atoms: _3  and  _4
REMARK    3  A    between atoms: _3  and  _6
REMARK    4  A    between atoms: _6  and  _7
REMARK    5  A    between atoms: _17  and  _19
REMARK    6  A    between atoms: _19  and  _20
REMARK    7  A    between atoms: _19  and  _22
REMARK    8  A    between atoms: _22  and  _23
REMARK    9  A    between atoms: _28  and  _29
REMARK   10  A    between atoms: _31  and  _33
REMARK   11  A    between atoms: _33  and  _34
REMARK   12  A    between atoms: _33  and  _36
REMARK   13  A    between atoms: _36  and  _37
REMARK   14  A    between atoms: _40  and  _41
REMARK   15  A    between atoms: _46  and  _48
REMARK   16  A    between atoms: _48  and  _49
REMARK   17  A    between atoms: _48  and  _51
REMARK   18  A    between atoms: _54  and  _56
REMARK   19  A    between atoms: _56  and  _57
REMARK   20  A    between atoms: _56  and  _59
REMARK   21  A    between atoms: _59  and  _60
REMARK   22  A    between atoms: _65  and  _67
REMARK   23  A    between atoms: _67  and  _68
REMARK   24  A    between atoms: _67  and  _70
REMARK   25  A    between atoms: _70  and  _71
REMARK   26  A    between atoms: _73  and  _75
REMARK   27  A    between atoms: _75  and  _76
REMARK   28  A    between atoms: _75  and  _78
REMARK   29  A    between atoms: _78  and  _79
REMARK   30  A    between atoms: _84  and  _86
REMARK   31  A    between atoms: _86  and  _87
REMARK   32  A    between atoms: _86  and  _89
REMARK   33  A    between atoms: _89  and  _90
REMARK   34  A    between atoms: _95  and  _97
REMARK   35  A    between atoms: _97  and  _98
REMARK   36  A    between atoms: _97  and  _100
REMARK   37  A    between atoms: _100  and  _101
REMARK   38  A    between atoms: _107  and  _109
REMARK   39  A    between atoms: _109  and  _110
REMARK   40  A    between atoms: _109  and  _112
REMARK   41  A    between atoms: _112  and  _113
REMARK   42  A    between atoms: _119  and  _121
REMARK   43  A    between atoms: _121  and  _122
REMARK   44  A    between atoms: _121  and  _124
REMARK   45  A    between atoms: _124  and  _125
REMARK   46  A    between atoms: _125  and  _126
REMARK   47  A    between atoms: _131  and  _133
REMARK   48  A    between atoms: _133  and  _134
REMARK   49  A    between atoms: _133  and  _136
REMARK   50  A    between atoms: _136  and  _137
REMARK   51  A    between atoms: _143  and  _145
REMARK   52  A    between atoms: _156  and  _159
REMARK   53  A    between atoms: _159  and  _160
REMARK   54  A    between atoms: _168  and  _169
REMARK   55  A    between atoms: _177  and  _179
REMARK   56  A    between atoms: _179  and  _180
REMARK   57  A    between atoms: _179  and  _182
REMARK   58  A    between atoms: _182  and  _183
REMARK   59  A    between atoms: _183  and  _184
REMARK   60  A    between atoms: _187  and  _189
REMARK   61  A    between atoms: _189  and  _190
REMARK   62  A    between atoms: _189  and  _192
REMARK   63  A    between atoms: _192  and  _193
REMARK   64  A    between atoms: _198  and  _200
REMARK   65  A    between atoms: _200  and  _201
REMARK   66  A    between atoms: _200  and  _203
REMARK   67  A    between atoms: _203  and  _204
REMARK   68  A    between atoms: _204  and  _205
REMARK   69  A    between atoms: _208  and  _210
REMARK   70  A    between atoms: _210  and  _211
REMARK   71  A    between atoms: _210  and  _213
REMARK   72  A    between atoms: _213  and  _214
REMARK   73  A    between atoms: _217  and  _219
REMARK   74  A    between atoms: _219  and  _220
REMARK   75  A    between atoms: _219  and  _222
REMARK   76  A    between atoms: _222  and  _223
REMARK   77  A    between atoms: _224  and  ZN_444
REMARK   78  A    between atoms: _228  and  _230
REMARK   79  A    between atoms: _230  and  _231
REMARK   80  A    between atoms: _230  and  _233
REMARK   81  A    between atoms: _236  and  _238
REMARK   82  A    between atoms: _238  and  _239
REMARK   83  A    between atoms: _242  and  _244
REMARK   84  A    between atoms: _244  and  _245
REMARK   85  A    between atoms: _244  and  _247
REMARK   86  A    between atoms: _247  and  _248
REMARK   87  A    between atoms: _253  and  _255
REMARK   88  A    between atoms: _255  and  _256
REMARK   89  A    between atoms: _255  and  _258
REMARK   90  A    between atoms: _258  and  _259
REMARK   91  A    between atoms: _262  and  _264
REMARK   92  A    between atoms: _264  and  _265
REMARK   93  A    between atoms: _268  and  _270
REMARK   94  A    between atoms: _270  and  _271
REMARK   95  A    between atoms: _270  and  _273
REMARK   96  A    between atoms: _273  and  _274
REMARK   97  A    between atoms: _277  and  _279
REMARK   98  A    between atoms: _279  and  _280
REMARK   99  A    between atoms: _283  and  _285
REMARK  100  A    between atoms: _285  and  _286
REMARK  101  A    between atoms: _285  and  _288
REMARK  102  A    between atoms: _291  and  _293
REMARK  103  A    between atoms: _293  and  _294
REMARK  104  A    between atoms: _293  and  _296
REMARK  105  A    between atoms: _296  and  _297
REMARK  106  A    between atoms: _300  and  _302
REMARK  107  A    between atoms: _302  and  _303
REMARK  108  A    between atoms: _305  and  _307
REMARK  109  A    between atoms: _307  and  _308
REMARK  110  A    between atoms: _310  and  _312
REMARK  111  A    between atoms: _312  and  _313
REMARK  112  A    between atoms: _312  and  _315
REMARK  113  A    between atoms: _315  and  _316
REMARK  114  A    between atoms: _318  and  _320
REMARK  115  A    between atoms: _320  and  _321
REMARK  116  A    between atoms: _320  and  _323
REMARK  117  A    between atoms: _323  and  _324
REMARK  118  A    between atoms: _327  and  _329
REMARK  119  A    between atoms: _329  and  _330
REMARK  120  A    between atoms: _329  and  _332
REMARK  121  A    between atoms: _332  and  _333
REMARK  122  A    between atoms: _336  and  _338
REMARK  123  A    between atoms: _338  and  _339
REMARK  124  A    between atoms: _338  and  _341
REMARK  125  A    between atoms: _341  and  _342
REMARK  126  A    between atoms: _348  and  _349
REMARK  127  A    between atoms: _355  and  _356
REMARK  128  A    between atoms: _361  and  _363
REMARK  129  A    between atoms: _363  and  _364
REMARK  130  A    between atoms: _363  and  _366
REMARK  131  A    between atoms: _366  and  _367
REMARK  132  A    between atoms: _370  and  _372
REMARK  133  A    between atoms: _372  and  _373
REMARK  134  A    between atoms: _372  and  _375
REMARK  135  A    between atoms: _375  and  _376
REMARK  136  A    between atoms: _381  and  _382
REMARK  137  A    between atoms: _384  and  _386
REMARK  138  A    between atoms: _386  and  _387
REMARK  139  A    between atoms: _386  and  _389
REMARK  140  A    between atoms: _389  and  _390
REMARK  141  A    between atoms: _392  and  _394
REMARK  142  A    between atoms: _394  and  _395
REMARK  143  A    between atoms: _394  and  _397
REMARK  144  A    between atoms: _400  and  _402
REMARK  145  A    between atoms: _402  and  _403
REMARK  146  A    between atoms: _402  and  _405
REMARK  147  A    between atoms: _405  and  _406
REMARK  148  A    between atoms: _416  and  _418
REMARK  149  A    between atoms: _418  and  _419
REMARK  150  A    between atoms: _418  and  _421
REMARK  151  A    between atoms: _421  and  _422
REMARK  152  A    between atoms: _427  and  _429
REMARK  153  A    between atoms: _429  and  _430
REMARK  154  A    between atoms: _429  and  _432
REMARK  155  A    between atoms: _432  and  _433
REMARK  156  A    between atoms: _433  and  _434
REMARK  157  A    between atoms: _434  and  _435
REMARK                            x       y       z     vdW  Elec       q    Type
REMARK                         _______ _______ _______ _____ _____    ______ ____
ROOT
ATOM      1  O   HOH     1     -19.080  10.197 -11.719  0.00  0.00    +0.000 OA
ENDROOT
TORSDOF 0
REMARK  Name = ../refined-set-2016/2nmx/2nmx_pocket.pdb
REMARK  157 active torsions:
REMARK  status: ('A' for Active; 'I' for Inactive)
REMARK    1  A    between atoms: _1  and  _3
REMARK    2  A    between atoms: _3  and  _4
REMARK    3  A    between atoms: _3  and  _6
REMARK    4  A    between atoms: _6  and  _7
REMARK    5  A    between atoms: _17  and  _19
REMARK    6  A    between atoms: _19  and  _20
REMARK    7  A    between atoms: _19  and  _22
REMARK    8  A    between atoms: _22  and  _23
REMARK    9  A    between atoms: _28  and  _29
REMARK   10  A    between atoms: _31  and  _33
REMARK   11  A    between atoms: _33  and  _34
REMARK   12  A    between atoms: _33  and  _36
REMARK   13  A    between atoms: _36  and  _37
REMARK   14  A    between atoms: _40  and  _41
REMARK   15  A    between atoms: _46  and  _48
REMARK   16  A    between atoms: _48  and  _49
REMARK   17  A    between atoms: _48  and  _51
REMARK   18  A    between atoms: _54  and  _56
REMARK   19  A    between atoms: _56  and  _57
REMARK   20  A    between atoms: _56  and  _59
REMARK   21  A    between atoms: _59  and  _60
REMARK   22  A    between atoms: _65  and  _67
REMARK   23  A    between atoms: _67  and  _68
REMARK   24  A    between atoms: _67  and  _70
REMARK   25  A    between atoms: _70  and  _71
REMARK   26  A    between atoms: _73  and  _75
REMARK   27  A    between atoms: _75  and  _76
REMARK   28  A    between atoms: _75  and  _78
REMARK   29  A    between atoms: _78  and  _79
REMARK   30  A    between atoms: _84  and  _86
REMARK   31  A    between atoms: _86  and  _87
REMARK   32  A    between atoms: _86  and  _89
REMARK   33  A    between atoms: _89  and  _90
REMARK   34  A    between atoms: _95  and  _97
REMARK   35  A    between atoms: _97  and  _98
REMARK   36  A    between atoms: _97  and  _100
REMARK   37  A    between atoms: _100  and  _101
REMARK   38  A    between atoms: _107  and  _109
REMARK   39  A    between atoms: _109  and  _110
REMARK   40  A    between atoms: _109  and  _112
REMARK   41  A    between atoms: _112  and  _113
REMARK   42  A    between atoms: _119  and  _121
REMARK   43  A    between atoms: _121  and  _122
REMARK   44  A    between atoms: _121  and  _124
REMARK   45  A    between atoms: _124  and  _125
REMARK   46  A    between atoms: _125  and  _126
REMARK   47  A    between atoms: _131  and  _133
REMARK   48  A    between atoms: _133  and  _134
REMARK   49  A    between atoms: _133  and  _136
REMARK   50  A    between atoms: _136  and  _137
REMARK   51  A    between atoms: _143  and  _145
REMARK   52  A    between atoms: _156  and  _159
REMARK   53  A    between atoms: _159  and  _160
REMARK   54  A    between atoms: _168  and  _169
REMARK   55  A    between atoms: _177  and  _179
REMARK   56  A    between atoms: _179  and  _180
REMARK   57  A    between atoms: _179  and  _182
REMARK   58  A    between atoms: _182  and  _183
REMARK   59  A    between atoms: _183  and  _184
REMARK   60  A    between atoms: _187  and  _189
REMARK   61  A    between atoms: _189  and  _190
REMARK   62  A    between atoms: _189  and  _192
REMARK   63  A    between atoms: _192  and  _193
REMARK   64  A    between atoms: _198  and  _200
REMARK   65  A    between atoms: _200  and  _201
REMARK   66  A    between atoms: _200  and  _203
REMARK   67  A    between atoms: _203  and  _204
REMARK   68  A    between atoms: _204  and  _205
REMARK   69  A    between atoms: _208  and  _210
REMARK   70  A    between atoms: _210  and  _211
REMARK   71  A    between atoms: _210  and  _213
REMARK   72  A    between atoms: _213  and  _214
REMARK   73  A    between atoms: _217  and  _219
REMARK   74  A    between atoms: _219  and  _220
REMARK   75  A    between atoms: _219  and  _222
REMARK   76  A    between atoms: _222  and  _223
REMARK   77  A    between atoms: _224  and  ZN_444
REMARK   78  A    between atoms: _228  and  _230
REMARK   79  A    between atoms: _230  and  _231
REMARK   80  A    between atoms: _230  and  _233
REMARK   81  A    between atoms: _236  and  _238
REMARK   82  A    between atoms: _238  and  _239
REMARK   83  A    between atoms: _242  and  _244
REMARK   84  A    between atoms: _244  and  _245
REMARK   85  A    between atoms: _244  and  _247
REMARK   86  A    between atoms: _247  and  _248
REMARK   87  A    between atoms: _253  and  _255
REMARK   88  A    between atoms: _255  and  _256
REMARK   89  A    between atoms: _255  and  _258
REMARK   90  A    between atoms: _258  and  _259
REMARK   91  A    between atoms: _262  and  _264
REMARK   92  A    between atoms: _264  and  _265
REMARK   93  A    between atoms: _268  and  _270
REMARK   94  A    between atoms: _270  and  _271
REMARK   95  A    between atoms: _270  and  _273
REMARK   96  A    between atoms: _273  and  _274
REMARK   97  A    between atoms: _277  and  _279
REMARK   98  A    between atoms: _279  and  _280
REMARK   99  A    between atoms: _283  and  _285
REMARK  100  A    between atoms: _285  and  _286
REMARK  101  A    between atoms: _285  and  _288
REMARK  102  A    between atoms: _291  and  _293
REMARK  103  A    between atoms: _293  and  _294
REMARK  104  A    between atoms: _293  and  _296
REMARK  105  A    between atoms: _296  and  _297
REMARK  106  A    between atoms: _300  and  _302
REMARK  107  A    between atoms: _302  and  _303
REMARK  108  A    between atoms: _305  and  _307
REMARK  109  A    between atoms: _307  and  _308
REMARK  110  A    between atoms: _310  and  _312
REMARK  111  A    between atoms: _312  and  _313
REMARK  112  A    between atoms: _312  and  _315
REMARK  113  A    between atoms: _315  and  _316
REMARK  114  A    between atoms: _318  and  _320
REMARK  115  A    between atoms: _320  and  _321
REMARK  116  A    between atoms: _320  and  _323
REMARK  117  A    between atoms: _323  and  _324
REMARK  118  A    between atoms: _327  and  _329
REMARK  119  A    between atoms: _329  and  _330
REMARK  120  A    between atoms: _329  and  _332
REMARK  121  A    between atoms: _332  and  _333
REMARK  122  A    between atoms: _336  and  _338
REMARK  123  A    between atoms: _338  and  _339
REMARK  124  A    between atoms: _338  and  _341
REMARK  125  A    between atoms: _341  and  _342
REMARK  126  A    between atoms: _348  and  _349
REMARK  127  A    between atoms: _355  and  _356
REMARK  128  A    between atoms: _361  and  _363
REMARK  129  A    between atoms: _363  and  _364
REMARK  130  A    between atoms: _363  and  _366
REMARK  131  A    between atoms: _366  and  _367
REMARK  132  A    between atoms: _370  and  _372
REMARK  133  A    between atoms: _372  and  _373
REMARK  134  A    between atoms: _372  and  _375
REMARK  135  A    between atoms: _375  and  _376
REMARK  136  A    between atoms: _381  and  _382
REMARK  137  A    between atoms: _384  and  _386
REMARK  138  A    between atoms: _386  and  _387
REMARK  139  A    between atoms: _386  and  _389
REMARK  140  A    between atoms: _389  and  _390
REMARK  141  A    between atoms: _392  and  _394
REMARK  142  A    between atoms: _394  and  _395
REMARK  143  A    between atoms: _394  and  _397
REMARK  144  A    between atoms: _400  and  _402
REMARK  145  A    between atoms: _402  and  _403
REMARK  146  A    between atoms: _402  and  _405
REMARK  147  A    between atoms: _405  and  _406
REMARK  148  A    between atoms: _416  and  _418
REMARK  149  A    between atoms: _418  and  _419
REMARK  150  A    between atoms: _418  and  _421
REMARK  151  A    between atoms: _421  and  _422
REMARK  152  A    between atoms: _427  and  _429
REMARK  153  A    between atoms: _429  and  _430
REMARK  154  A    between atoms: _429  and  _432
REMARK  155  A    between atoms: _432  and  _433
REMARK  156  A    between atoms: _433  and  _434
REMARK  157  A    between atoms: _434  and  _435
REMARK                            x       y       z     vdW  Elec       q    Type
REMARK                         _______ _______ _______ _____ _____    ______ ____
ROOT
ATOM      1  O   HOH     1     -19.561   0.005 -11.486  0.00  0.00    +0.000 OA
ENDROOT
TORSDOF 0
REMARK  Name = ../refined-set-2016/2nmx/2nmx_pocket.pdb
REMARK  157 active torsions:
REMARK  status: ('A' for Active; 'I' for Inactive)
REMARK    1  A    between atoms: _1  and  _3
REMARK    2  A    between atoms: _3  and  _4
REMARK    3  A    between atoms: _3  and  _6
REMARK    4  A    between atoms: _6  and  _7
REMARK    5  A    between atoms: _17  and  _19
REMARK    6  A    between atoms: _19  and  _20
REMARK    7  A    between atoms: _19  and  _22
REMARK    8  A    between atoms: _22  and  _23
REMARK    9  A    between atoms: _28  and  _29
REMARK   10  A    between atoms: _31  and  _33
REMARK   11  A    between atoms: _33  and  _34
REMARK   12  A    between atoms: _33  and  _36
REMARK   13  A    between atoms: _36  and  _37
REMARK   14  A    between atoms: _40  and  _41
REMARK   15  A    between atoms: _46  and  _48
REMARK   16  A    between atoms: _48  and  _49
REMARK   17  A    between atoms: _48  and  _51
REMARK   18  A    between atoms: _54  and  _56
REMARK   19  A    between atoms: _56  and  _57
REMARK   20  A    between atoms: _56  and  _59
REMARK   21  A    between atoms: _59  and  _60
REMARK   22  A    between atoms: _65  and  _67
REMARK   23  A    between atoms: _67  and  _68
REMARK   24  A    between atoms: _67  and  _70
REMARK   25  A    between atoms: _70  and  _71
REMARK   26  A    between atoms: _73  and  _75
REMARK   27  A    between atoms: _75  and  _76
REMARK   28  A    between atoms: _75  and  _78
REMARK   29  A    between atoms: _78  and  _79
REMARK   30  A    between atoms: _84  and  _86
REMARK   31  A    between atoms: _86  and  _87
REMARK   32  A    between atoms: _86  and  _89
REMARK   33  A    between atoms: _89  and  _90
REMARK   34  A    between atoms: _95  and  _97
REMARK   35  A    between atoms: _97  and  _98
REMARK   36  A    between atoms: _97  and  _100
REMARK   37  A    between atoms: _100  and  _101
REMARK   38  A    between atoms: _107  and  _109
REMARK   39  A    between atoms: _109  and  _110
REMARK   40  A    between atoms: _109  and  _112
REMARK   41  A    between atoms: _112  and  _113
REMARK   42  A    between atoms: _119  and  _121
REMARK   43  A    between atoms: _121  and  _122
REMARK   44  A    between atoms: _121  and  _124
REMARK   45  A    between atoms: _124  and  _125
REMARK   46  A    between atoms: _125  and  _126
REMARK   47  A    between atoms: _131  and  _133
REMARK   48  A    between atoms: _133  and  _134
REMARK   49  A    between atoms: _133  and  _136
REMARK   50  A    between atoms: _136  and  _137
REMARK   51  A    between atoms: _143  and  _145
REMARK   52  A    between atoms: _156  and  _159
REMARK   53  A    between atoms: _159  and  _160
REMARK   54  A    between atoms: _168  and  _169
REMARK   55  A    between atoms: _177  and  _179
REMARK   56  A    between atoms: _179  and  _180
REMARK   57  A    between atoms: _179  and  _182
REMARK   58  A    between atoms: _182  and  _183
REMARK   59  A    between atoms: _183  and  _184
REMARK   60  A    between atoms: _187  and  _189
REMARK   61  A    between atoms: _189  and  _190
REMARK   62  A    between atoms: _189  and  _192
REMARK   63  A    between atoms: _192  and  _193
REMARK   64  A    between atoms: _198  and  _200
REMARK   65  A    between atoms: _200  and  _201
REMARK   66  A    between atoms: _200  and  _203
REMARK   67  A    between atoms: _203  and  _204
REMARK   68  A    between atoms: _204  and  _205
REMARK   69  A    between atoms: _208  and  _210
REMARK   70  A    between atoms: _210  and  _211
REMARK   71  A    between atoms: _210  and  _213
REMARK   72  A    between atoms: _213  and  _214
REMARK   73  A    between atoms: _217  and  _219
REMARK   74  A    between atoms: _219  and  _220
REMARK   75  A    between atoms: _219  and  _222
REMARK   76  A    between atoms: _222  and  _223
REMARK   77  A    between atoms: _224  and  ZN_444
REMARK   78  A    between atoms: _228  and  _230
REMARK   79  A    between atoms: _230  and  _231
REMARK   80  A    between atoms: _230  and  _233
REMARK   81  A    between atoms: _236  and  _238
REMARK   82  A    between atoms: _238  and  _239
REMARK   83  A    between atoms: _242  and  _244
REMARK   84  A    between atoms: _244  and  _245
REMARK   85  A    between atoms: _244  and  _247
REMARK   86  A    between atoms: _247  and  _248
REMARK   87  A    between atoms: _253  and  _255
REMARK   88  A    between atoms: _255  and  _256
REMARK   89  A    between atoms: _255  and  _258
REMARK   90  A    between atoms: _258  and  _259
REMARK   91  A    between atoms: _262  and  _264
REMARK   92  A    between atoms: _264  and  _265
REMARK   93  A    between atoms: _268  and  _270
REMARK   94  A    between atoms: _270  and  _271
REMARK   95  A    between atoms: _270  and  _273
REMARK   96  A    between atoms: _273  and  _274
REMARK   97  A    between atoms: _277  and  _279
REMARK   98  A    between atoms: _279  and  _280
REMARK   99  A    between atoms: _283  and  _285
REMARK  100  A    between atoms: _285  and  _286
REMARK  101  A    between atoms: _285  and  _288
REMARK  102  A    between atoms: _291  and  _293
REMARK  103  A    between atoms: _293  and  _294
REMARK  104  A    between atoms: _293  and  _296
REMARK  105  A    between atoms: _296  and  _297
REMARK  106  A    between atoms: _300  and  _302
REMARK  107  A    between atoms: _302  and  _303
REMARK  108  A    between atoms: _305  and  _307
REMARK  109  A    between atoms: _307  and  _308
REMARK  110  A    between atoms: _310  and  _312
REMARK  111  A    between atoms: _312  and  _313
REMARK  112  A    between atoms: _312  and  _315
REMARK  113  A    between atoms: _315  and  _316
REMARK  114  A    between atoms: _318  and  _320
REMARK  115  A    between atoms: _320  and  _321
REMARK  116  A    between atoms: _320  and  _323
REMARK  117  A    between atoms: _323  and  _324
REMARK  118  A    between atoms: _327  and  _329
REMARK  119  A    between atoms: _329  and  _330
REMARK  120  A    between atoms: _329  and  _332
REMARK  121  A    between atoms: _332  and  _333
REMARK  122  A    between atoms: _336  and  _338
REMARK  123  A    between atoms: _338  and  _339
REMARK  124  A    between atoms: _338  and  _341
REMARK  125  A    between atoms: _341  and  _342
REMARK  126  A    between atoms: _348  and  _349
REMARK  127  A    between atoms: _355  and  _356
REMARK  128  A    between atoms: _361  and  _363
REMARK  129  A    between atoms: _363  and  _364
REMARK  130  A    between atoms: _363  and  _366
REMARK  131  A    between atoms: _366  and  _367
REMARK  132  A    between atoms: _370  and  _372
REMARK  133  A    between atoms: _372  and  _373
REMARK  134  A    between atoms: _372  and  _375
REMARK  135  A    between atoms: _375  and  _376
REMARK  136  A    between atoms: _381  and  _382
REMARK  137  A    between atoms: _384  and  _386
REMARK  138  A    between atoms: _386  and  _387
REMARK  139  A    between atoms: _386  and  _389
REMARK  140  A    between atoms: _389  and  _390
REMARK  141  A    between atoms: _392  and  _394
REMARK  142  A    between atoms: _394  and  _395
REMARK  143  A    between atoms: _394  and  _397
REMARK  144  A    between atoms: _400  and  _402
REMARK  145  A    between atoms: _402  and  _403
REMARK  146  A    between atoms: _402  and  _405
REMARK  147  A    between atoms: _405  and  _406
REMARK  148  A    between atoms: _416  and  _418
REMARK  149  A    between atoms: _418  and  _419
REMARK  150  A    between atoms: _418  and  _421
REMARK  151  A    between atoms: _421  and  _422
REMARK  152  A    between atoms: _427  and  _429
REMARK  153  A    between atoms: _429  and  _430
REMARK  154  A    between atoms: _429  and  _432
REMARK  155  A    between atoms: _432  and  _433
REMARK  156  A    between atoms: _433  and  _434
REMARK  157  A    between atoms: _434  and  _435
REMARK                            x       y       z     vdW  Elec       q    Type
REMARK                         _______ _______ _______ _____ _____    ______ ____
ROOT
ATOM      1  O   HOH     1     -21.437  11.249 -10.988  0.00  0.00    +0.000 OA
ENDROOT
TORSDOF 0
