REMARK  Name = ../refined-set-2016/3g2k/3g2k_pocket.pdb
REMARK  270 active torsions:
REMARK  status: ('A' for Active; 'I' for Inactive)
REMARK    1  A    between atoms: _1  and  _3
REMARK    2  A    between atoms: _3  and  _4
REMARK    3  A    between atoms: _3  and  _6
REMARK    4  A    between atoms: _6  and  _7
REMARK    5  A    between atoms: _12  and  _13
REMARK    6  A    between atoms: _15  and  _17
REMARK    7  A    between atoms: _17  and  _18
REMARK    8  A    between atoms: _17  and  _20
REMARK    9  A    between atoms: _20  and  _21
REMARK   10  A    between atoms: _24  and  _26
REMARK   11  A    between atoms: _26  and  _27
REMARK   12  A    between atoms: _26  and  _29
REMARK   13  A    between atoms: _29  and  _30
REMARK   14  A    between atoms: _30  and  _31
REMARK   15  A    between atoms: _34  and  _36
REMARK   16  A    between atoms: _36  and  _37
REMARK   17  A    between atoms: _36  and  _39
REMARK   18  A    between atoms: _39  and  _40
REMARK   19  A    between atoms: _45  and  _47
REMARK   20  A    between atoms: _47  and  _48
REMARK   21  A    between atoms: _50  and  _52
REMARK   22  A    between atoms: _52  and  _53
REMARK   23  A    between atoms: _55  and  _57
REMARK   24  A    between atoms: _57  and  _58
REMARK   25  A    between atoms: _57  and  _60
REMARK   26  A    between atoms: _60  and  _61
REMARK   27  A    between atoms: _64  and  _66
REMARK   28  A    between atoms: _66  and  _67
REMARK   29  A    between atoms: _69  and  _71
REMARK   30  A    between atoms: _71  and  _72
REMARK   31  A    between atoms: _71  and  _74
REMARK   32  A    between atoms: _74  and  _75
REMARK   33  A    between atoms: _75  and  _76
REMARK   34  A    between atoms: _76  and  _77
REMARK   35  A    between atoms: _86  and  _88
REMARK   36  A    between atoms: _88  and  _89
REMARK   37  A    between atoms: _88  and  _91
REMARK   38  A    between atoms: _91  and  _92
REMARK   39  A    between atoms: _95  and  _97
REMARK   40  A    between atoms: _97  and  _98
REMARK   41  A    between atoms: _101  and  _103
REMARK   42  A    between atoms: _103  and  _104
REMARK   43  A    between atoms: _103  and  _106
REMARK   44  A    between atoms: _106  and  _107
REMARK   45  A    between atoms: _113  and  _115
REMARK   46  A    between atoms: _115  and  _116
REMARK   47  A    between atoms: _115  and  _118
REMARK   48  A    between atoms: _118  and  _119
REMARK   49  A    between atoms: _124  and  _125
REMARK   50  A    between atoms: _128  and  _129
REMARK   51  A    between atoms: _134  and  _136
REMARK   52  A    between atoms: _136  and  _137
REMARK   53  A    between atoms: _136  and  _139
REMARK   54  A    between atoms: _139  and  _140
REMARK   55  A    between atoms: _145  and  _147
REMARK   56  A    between atoms: _147  and  _148
REMARK   57  A    between atoms: _147  and  _150
REMARK   58  A    between atoms: _150  and  _151
REMARK   59  A    between atoms: _154  and  _156
REMARK   60  A    between atoms: _156  and  _157
REMARK   61  A    between atoms: _156  and  _159
REMARK   62  A    between atoms: _159  and  _160
REMARK   63  A    between atoms: _165  and  _167
REMARK   64  A    between atoms: _167  and  _168
REMARK   65  A    between atoms: _167  and  _170
REMARK   66  A    between atoms: _170  and  _171
REMARK   67  A    between atoms: _177  and  _179
REMARK   68  A    between atoms: _179  and  _180
REMARK   69  A    between atoms: _179  and  _182
REMARK   70  A    between atoms: _182  and  _183
REMARK   71  A    between atoms: _189  and  _191
REMARK   72  A    between atoms: _191  and  _192
REMARK   73  A    between atoms: _191  and  _194
REMARK   74  A    between atoms: _194  and  _195
REMARK   75  A    between atoms: _195  and  _196
REMARK   76  A    between atoms: _199  and  _201
REMARK   77  A    between atoms: _201  and  _202
REMARK   78  A    between atoms: _201  and  _204
REMARK   79  A    between atoms: _204  and  _205
REMARK   80  A    between atoms: _205  and  _206
REMARK   81  A    between atoms: _206  and  _207
REMARK   82  A    between atoms: _216  and  _218
REMARK   83  A    between atoms: _218  and  _219
REMARK   84  A    between atoms: _218  and  _221
REMARK   85  A    between atoms: _221  and  _222
REMARK   86  A    between atoms: _222  and  _223
REMARK   87  A    between atoms: _226  and  _228
REMARK   88  A    between atoms: _228  and  _229
REMARK   89  A    between atoms: _228  and  _231
REMARK   90  A    between atoms: _231  and  _232
REMARK   91  A    between atoms: _237  and  _239
REMARK   92  A    between atoms: _239  and  _240
REMARK   93  A    between atoms: _239  and  _242
REMARK   94  A    between atoms: _242  and  _243
REMARK   95  A    between atoms: _246  and  _248
REMARK   96  A    between atoms: _248  and  _249
REMARK   97  A    between atoms: _248  and  _251
REMARK   98  A    between atoms: _251  and  _252
REMARK   99  A    between atoms: _255  and  _257
REMARK  100  A    between atoms: _257  and  _258
REMARK  101  A    between atoms: _257  and  _260
REMARK  102  A    between atoms: _260  and  _261
REMARK  103  A    between atoms: _266  and  _268
REMARK  104  A    between atoms: _268  and  _269
REMARK  105  A    between atoms: _268  and  _271
REMARK  106  A    between atoms: _271  and  _272
REMARK  107  A    between atoms: _277  and  _278
REMARK  108  A    between atoms: _280  and  _282
REMARK  109  A    between atoms: _282  and  _283
REMARK  110  A    between atoms: _282  and  _285
REMARK  111  A    between atoms: _285  and  _286
REMARK  112  A    between atoms: _289  and  _291
REMARK  113  A    between atoms: _291  and  _292
REMARK  114  A    between atoms: _291  and  _294
REMARK  115  A    between atoms: _294  and  _295
REMARK  116  A    between atoms: _300  and  _302
REMARK  117  A    between atoms: _302  and  _303
REMARK  118  A    between atoms: _302  and  _305
REMARK  119  A    between atoms: _305  and  _306
REMARK  120  A    between atoms: _311  and  _313
REMARK  121  A    between atoms: _313  and  _314
REMARK  122  A    between atoms: _313  and  _316
REMARK  123  A    between atoms: _316  and  _317
REMARK  124  A    between atoms: _320  and  _322
REMARK  125  A    between atoms: _322  and  _323
REMARK  126  A    between atoms: _322  and  _325
REMARK  127  A    between atoms: _328  and  _330
REMARK  128  A    between atoms: _330  and  _331
REMARK  129  A    between atoms: _330  and  _333
REMARK  130  A    between atoms: _333  and  _334
REMARK  131  A    between atoms: _337  and  _339
REMARK  132  A    between atoms: _339  and  _340
REMARK  133  A    between atoms: _339  and  _342
REMARK  134  A    between atoms: _342  and  _343
REMARK  135  A    between atoms: _343  and  _344
REMARK  136  A    between atoms: _347  and  _349
REMARK  137  A    between atoms: _349  and  _350
REMARK  138  A    between atoms: _353  and  _355
REMARK  139  A    between atoms: _355  and  _356
REMARK  140  A    between atoms: _355  and  _358
REMARK  141  A    between atoms: _358  and  _359
REMARK  142  A    between atoms: _362  and  _364
REMARK  143  A    between atoms: _364  and  _365
REMARK  144  A    between atoms: _364  and  _367
REMARK  145  A    between atoms: _367  and  _368
REMARK  146  A    between atoms: _368  and  _369
REMARK  147  A    between atoms: _372  and  _374
REMARK  148  A    between atoms: _374  and  _375
REMARK  149  A    between atoms: _374  and  _377
REMARK  150  A    between atoms: _377  and  _378
REMARK  151  A    between atoms: _378  and  _379
REMARK  152  A    between atoms: _379  and  _380
REMARK  153  A    between atoms: _389  and  _391
REMARK  154  A    between atoms: _391  and  _392
REMARK  155  A    between atoms: _391  and  _394
REMARK  156  A    between atoms: _394  and  _395
REMARK  157  A    between atoms: _405  and  _407
REMARK  158  A    between atoms: _407  and  _408
REMARK  159  A    between atoms: _407  and  _410
REMARK  160  A    between atoms: _410  and  _411
REMARK  161  A    between atoms: _416  and  _418
REMARK  162  A    between atoms: _418  and  _419
REMARK  163  A    between atoms: _421  and  _423
REMARK  164  A    between atoms: _423  and  _424
REMARK  165  A    between atoms: _423  and  _426
REMARK  166  A    between atoms: _429  and  _431
REMARK  167  A    between atoms: _431  and  _432
REMARK  168  A    between atoms: _435  and  _437
REMARK  169  A    between atoms: _437  and  _438
REMARK  170  A    between atoms: _437  and  _440
REMARK  171  A    between atoms: _440  and  _441
REMARK  172  A    between atoms: _446  and  _448
REMARK  173  A    between atoms: _448  and  _449
REMARK  174  A    between atoms: _448  and  _451
REMARK  175  A    between atoms: _451  and  _452
REMARK  176  A    between atoms: _452  and  _453
REMARK  177  A    between atoms: _453  and  _454
REMARK  178  A    between atoms: _454  and  _455
REMARK  179  A    between atoms: _459  and  _461
REMARK  180  A    between atoms: _461  and  _462
REMARK  181  A    between atoms: _461  and  _464
REMARK  182  A    between atoms: _464  and  _465
REMARK  183  A    between atoms: _470  and  _472
REMARK  184  A    between atoms: _472  and  _473
REMARK  185  A    between atoms: _475  and  _477
REMARK  186  A    between atoms: _477  and  _478
REMARK  187  A    between atoms: _477  and  _480
REMARK  188  A    between atoms: _480  and  _481
REMARK  189  A    between atoms: _481  and  _482
REMARK  190  A    between atoms: _482  and  _483
REMARK  191  A    between atoms: _483  and  _484
REMARK  192  A    between atoms: _488  and  _490
REMARK  193  A    between atoms: _490  and  _491
REMARK  194  A    between atoms: _490  and  _493
REMARK  195  A    between atoms: _493  and  _494
REMARK  196  A    between atoms: _494  and  _495
REMARK  197  A    between atoms: _495  and  _496
REMARK  198  A    between atoms: _505  and  _507
REMARK  199  A    between atoms: _507  and  _508
REMARK  200  A    between atoms: _507  and  _510
REMARK  201  A    between atoms: _510  and  _511
REMARK  202  A    between atoms: _516  and  _517
REMARK  203  A    between atoms: _519  and  _521
REMARK  204  A    between atoms: _521  and  _522
REMARK  205  A    between atoms: _521  and  _524
REMARK  206  A    between atoms: _524  and  _525
REMARK  207  A    between atoms: _525  and  _526
REMARK  208  A    between atoms: _526  and  _527
REMARK  209  A    between atoms: _527  and  _528
REMARK  210  A    between atoms: _532  and  _534
REMARK  211  A    between atoms: _534  and  _535
REMARK  212  A    between atoms: _534  and  _537
REMARK  213  A    between atoms: _537  and  _538
REMARK  214  A    between atoms: _540  and  _542
REMARK  215  A    between atoms: _542  and  _543
REMARK  216  A    between atoms: _542  and  _545
REMARK  217  A    between atoms: _545  and  _546
REMARK  218  A    between atoms: _549  and  _551
REMARK  219  A    between atoms: _551  and  _552
REMARK  220  A    between atoms: _551  and  _554
REMARK  221  A    between atoms: _554  and  _555
REMARK  222  A    between atoms: _555  and  _556
REMARK  223  A    between atoms: _559  and  _561
REMARK  224  A    between atoms: _561  and  _562
REMARK  225  A    between atoms: _565  and  _567
REMARK  226  A    between atoms: _567  and  _568
REMARK  227  A    between atoms: _567  and  _570
REMARK  228  A    between atoms: _570  and  _571
REMARK  229  A    between atoms: _573  and  _575
REMARK  230  A    between atoms: _575  and  _576
REMARK  231  A    between atoms: _578  and  _580
REMARK  232  A    between atoms: _580  and  _581
REMARK  233  A    between atoms: _580  and  _583
REMARK  234  A    between atoms: _583  and  _584
REMARK  235  A    between atoms: _587  and  _589
REMARK  236  A    between atoms: _589  and  _590
REMARK  237  A    between atoms: _592  and  _594
REMARK  238  A    between atoms: _594  and  _595
REMARK  239  A    between atoms: _594  and  _597
REMARK  240  A    between atoms: _597  and  _598
REMARK  241  A    between atoms: _603  and  _605
REMARK  242  A    between atoms: _605  and  _606
REMARK  243  A    between atoms: _605  and  _608
REMARK  244  A    between atoms: _608  and  _609
REMARK  245  A    between atoms: _609  and  _610
REMARK  246  A    between atoms: _617  and  _618
REMARK  247  A    between atoms: _618  and  _634
REMARK  248  A    between atoms: _619  and  _621
REMARK  249  A    between atoms: _621  and  _622
REMARK  250  A    between atoms: _622  and  _623
REMARK  251  A    between atoms: _627  and  _629
REMARK  252  A    between atoms: _629  and  _630
REMARK  253  A    between atoms: _629  and  _637
REMARK  254  A    between atoms: _630  and  _631
REMARK  255  A    between atoms: _631  and  _632
REMARK  256  A    between atoms: _632  and  _633
REMARK  257  A    between atoms: _633  and  _634
REMARK  258  A    between atoms: _639  and  _641
REMARK  259  A    between atoms: _641  and  _642
REMARK  260  A    between atoms: _641  and  _644
REMARK  261  A    between atoms: _644  and  _645
REMARK  262  A    between atoms: _648  and  _650
REMARK  263  A    between atoms: _650  and  _651
REMARK  264  A    between atoms: _653  and  _655
REMARK  265  A    between atoms: _655  and  _656
REMARK  266  A    between atoms: _659  and  _661
REMARK  267  A    between atoms: _661  and  _662
REMARK  268  A    between atoms: _661  and  _664
REMARK  269  A    between atoms: _664  and  _665
REMARK  270  A    between atoms: _670  and  _671
REMARK                            x       y       z     vdW  Elec       q    Type
REMARK                         _______ _______ _______ _____ _____    ______ ____
ROOT
ATOM      1  CG  TYR A   1      33.457  11.428  36.519  0.00  0.00    -0.020 A 
ATOM      2  CD2 TYR A   1      32.985  12.739  36.611  0.00  0.00    -0.001 A 
ATOM      3  CE2 TYR A   1      33.020  13.594  35.511  0.00  0.00    +0.036 A 
ATOM      4  CZ  TYR A   1      33.518  13.134  34.308  0.00  0.00    +0.134 A 
ATOM      5  CE1 TYR A   1      33.986  11.836  34.188  0.00  0.00    +0.036 A 
ATOM      6  CD1 TYR A   1      33.954  10.992  35.291  0.00  0.00    -0.001 A 
ENDROOT
BRANCH   4   7
ATOM      7  OH  TYR A   1      33.546  13.965  33.210  0.00  0.00    -0.506 OA
ATOM      8  HH  TYR A   1      33.931  13.478  32.439  0.00  0.00    +0.292 HD
ENDBRANCH   4   7
BRANCH   1   9
ATOM      9  CB  TYR A   1      33.439  10.508  37.714  0.00  0.00    +0.051 C 
BRANCH   9  10
ATOM     10  CA  TYR A   1      34.782  10.440  38.457  0.00  0.00    +0.137 C 
BRANCH  10  11
ATOM     11  N   TYR A   1      34.819   9.278  39.328  0.00  0.00    -0.239 NA
ATOM     12  H   TYR A   1      33.958   9.014  39.848  0.00  0.00    +0.142 HD
ENDBRANCH  10  11
BRANCH  10  13
ATOM     13  C   TYR A   1      35.002  11.702  39.291  0.00  0.00    +0.224 C 
ATOM     14  O   TYR A   1      34.110  12.128  40.024  0.00  0.00    -0.287 OA
ENDBRANCH  10  13
ENDBRANCH   9  10
ENDBRANCH   1   9
TORSDOF 5
REMARK  Name = ../refined-set-2016/3g2k/3g2k_pocket.pdb
REMARK  270 active torsions:
REMARK  status: ('A' for Active; 'I' for Inactive)
REMARK    1  A    between atoms: _1  and  _3
REMARK    2  A    between atoms: _3  and  _4
REMARK    3  A    between atoms: _3  and  _6
REMARK    4  A    between atoms: _6  and  _7
REMARK    5  A    between atoms: _12  and  _13
REMARK    6  A    between atoms: _15  and  _17
REMARK    7  A    between atoms: _17  and  _18
REMARK    8  A    between atoms: _17  and  _20
REMARK    9  A    between atoms: _20  and  _21
REMARK   10  A    between atoms: _24  and  _26
REMARK   11  A    between atoms: _26  and  _27
REMARK   12  A    between atoms: _26  and  _29
REMARK   13  A    between atoms: _29  and  _30
REMARK   14  A    between atoms: _30  and  _31
REMARK   15  A    between atoms: _34  and  _36
REMARK   16  A    between atoms: _36  and  _37
REMARK   17  A    between atoms: _36  and  _39
REMARK   18  A    between atoms: _39  and  _40
REMARK   19  A    between atoms: _45  and  _47
REMARK   20  A    between atoms: _47  and  _48
REMARK   21  A    between atoms: _50  and  _52
REMARK   22  A    between atoms: _52  and  _53
REMARK   23  A    between atoms: _55  and  _57
REMARK   24  A    between atoms: _57  and  _58
REMARK   25  A    between atoms: _57  and  _60
REMARK   26  A    between atoms: _60  and  _61
REMARK   27  A    between atoms: _64  and  _66
REMARK   28  A    between atoms: _66  and  _67
REMARK   29  A    between atoms: _69  and  _71
REMARK   30  A    between atoms: _71  and  _72
REMARK   31  A    between atoms: _71  and  _74
REMARK   32  A    between atoms: _74  and  _75
REMARK   33  A    between atoms: _75  and  _76
REMARK   34  A    between atoms: _76  and  _77
REMARK   35  A    between atoms: _86  and  _88
REMARK   36  A    between atoms: _88  and  _89
REMARK   37  A    between atoms: _88  and  _91
REMARK   38  A    between atoms: _91  and  _92
REMARK   39  A    between atoms: _95  and  _97
REMARK   40  A    between atoms: _97  and  _98
REMARK   41  A    between atoms: _101  and  _103
REMARK   42  A    between atoms: _103  and  _104
REMARK   43  A    between atoms: _103  and  _106
REMARK   44  A    between atoms: _106  and  _107
REMARK   45  A    between atoms: _113  and  _115
REMARK   46  A    between atoms: _115  and  _116
REMARK   47  A    between atoms: _115  and  _118
REMARK   48  A    between atoms: _118  and  _119
REMARK   49  A    between atoms: _124  and  _125
REMARK   50  A    between atoms: _128  and  _129
REMARK   51  A    between atoms: _134  and  _136
REMARK   52  A    between atoms: _136  and  _137
REMARK   53  A    between atoms: _136  and  _139
REMARK   54  A    between atoms: _139  and  _140
REMARK   55  A    between atoms: _145  and  _147
REMARK   56  A    between atoms: _147  and  _148
REMARK   57  A    between atoms: _147  and  _150
REMARK   58  A    between atoms: _150  and  _151
REMARK   59  A    between atoms: _154  and  _156
REMARK   60  A    between atoms: _156  and  _157
REMARK   61  A    between atoms: _156  and  _159
REMARK   62  A    between atoms: _159  and  _160
REMARK   63  A    between atoms: _165  and  _167
REMARK   64  A    between atoms: _167  and  _168
REMARK   65  A    between atoms: _167  and  _170
REMARK   66  A    between atoms: _170  and  _171
REMARK   67  A    between atoms: _177  and  _179
REMARK   68  A    between atoms: _179  and  _180
REMARK   69  A    between atoms: _179  and  _182
REMARK   70  A    between atoms: _182  and  _183
REMARK   71  A    between atoms: _189  and  _191
REMARK   72  A    between atoms: _191  and  _192
REMARK   73  A    between atoms: _191  and  _194
REMARK   74  A    between atoms: _194  and  _195
REMARK   75  A    between atoms: _195  and  _196
REMARK   76  A    between atoms: _199  and  _201
REMARK   77  A    between atoms: _201  and  _202
REMARK   78  A    between atoms: _201  and  _204
REMARK   79  A    between atoms: _204  and  _205
REMARK   80  A    between atoms: _205  and  _206
REMARK   81  A    between atoms: _206  and  _207
REMARK   82  A    between atoms: _216  and  _218
REMARK   83  A    between atoms: _218  and  _219
REMARK   84  A    between atoms: _218  and  _221
REMARK   85  A    between atoms: _221  and  _222
REMARK   86  A    between atoms: _222  and  _223
REMARK   87  A    between atoms: _226  and  _228
REMARK   88  A    between atoms: _228  and  _229
REMARK   89  A    between atoms: _228  and  _231
REMARK   90  A    between atoms: _231  and  _232
REMARK   91  A    between atoms: _237  and  _239
REMARK   92  A    between atoms: _239  and  _240
REMARK   93  A    between atoms: _239  and  _242
REMARK   94  A    between atoms: _242  and  _243
REMARK   95  A    between atoms: _246  and  _248
REMARK   96  A    between atoms: _248  and  _249
REMARK   97  A    between atoms: _248  and  _251
REMARK   98  A    between atoms: _251  and  _252
REMARK   99  A    between atoms: _255  and  _257
REMARK  100  A    between atoms: _257  and  _258
REMARK  101  A    between atoms: _257  and  _260
REMARK  102  A    between atoms: _260  and  _261
REMARK  103  A    between atoms: _266  and  _268
REMARK  104  A    between atoms: _268  and  _269
REMARK  105  A    between atoms: _268  and  _271
REMARK  106  A    between atoms: _271  and  _272
REMARK  107  A    between atoms: _277  and  _278
REMARK  108  A    between atoms: _280  and  _282
REMARK  109  A    between atoms: _282  and  _283
REMARK  110  A    between atoms: _282  and  _285
REMARK  111  A    between atoms: _285  and  _286
REMARK  112  A    between atoms: _289  and  _291
REMARK  113  A    between atoms: _291  and  _292
REMARK  114  A    between atoms: _291  and  _294
REMARK  115  A    between atoms: _294  and  _295
REMARK  116  A    between atoms: _300  and  _302
REMARK  117  A    between atoms: _302  and  _303
REMARK  118  A    between atoms: _302  and  _305
REMARK  119  A    between atoms: _305  and  _306
REMARK  120  A    between atoms: _311  and  _313
REMARK  121  A    between atoms: _313  and  _314
REMARK  122  A    between atoms: _313  and  _316
REMARK  123  A    between atoms: _316  and  _317
REMARK  124  A    between atoms: _320  and  _322
REMARK  125  A    between atoms: _322  and  _323
REMARK  126  A    between atoms: _322  and  _325
REMARK  127  A    between atoms: _328  and  _330
REMARK  128  A    between atoms: _330  and  _331
REMARK  129  A    between atoms: _330  and  _333
REMARK  130  A    between atoms: _333  and  _334
REMARK  131  A    between atoms: _337  and  _339
REMARK  132  A    between atoms: _339  and  _340
REMARK  133  A    between atoms: _339  and  _342
REMARK  134  A    between atoms: _342  and  _343
REMARK  135  A    between atoms: _343  and  _344
REMARK  136  A    between atoms: _347  and  _349
REMARK  137  A    between atoms: _349  and  _350
REMARK  138  A    between atoms: _353  and  _355
REMARK  139  A    between atoms: _355  and  _356
REMARK  140  A    between atoms: _355  and  _358
REMARK  141  A    between atoms: _358  and  _359
REMARK  142  A    between atoms: _362  and  _364
REMARK  143  A    between atoms: _364  and  _365
REMARK  144  A    between atoms: _364  and  _367
REMARK  145  A    between atoms: _367  and  _368
REMARK  146  A    between atoms: _368  and  _369
REMARK  147  A    between atoms: _372  and  _374
REMARK  148  A    between atoms: _374  and  _375
REMARK  149  A    between atoms: _374  and  _377
REMARK  150  A    between atoms: _377  and  _378
REMARK  151  A    between atoms: _378  and  _379
REMARK  152  A    between atoms: _379  and  _380
REMARK  153  A    between atoms: _389  and  _391
REMARK  154  A    between atoms: _391  and  _392
REMARK  155  A    between atoms: _391  and  _394
REMARK  156  A    between atoms: _394  and  _395
REMARK  157  A    between atoms: _405  and  _407
REMARK  158  A    between atoms: _407  and  _408
REMARK  159  A    between atoms: _407  and  _410
REMARK  160  A    between atoms: _410  and  _411
REMARK  161  A    between atoms: _416  and  _418
REMARK  162  A    between atoms: _418  and  _419
REMARK  163  A    between atoms: _421  and  _423
REMARK  164  A    between atoms: _423  and  _424
REMARK  165  A    between atoms: _423  and  _426
REMARK  166  A    between atoms: _429  and  _431
REMARK  167  A    between atoms: _431  and  _432
REMARK  168  A    between atoms: _435  and  _437
REMARK  169  A    between atoms: _437  and  _438
REMARK  170  A    between atoms: _437  and  _440
REMARK  171  A    between atoms: _440  and  _441
REMARK  172  A    between atoms: _446  and  _448
REMARK  173  A    between atoms: _448  and  _449
REMARK  174  A    between atoms: _448  and  _451
REMARK  175  A    between atoms: _451  and  _452
REMARK  176  A    between atoms: _452  and  _453
REMARK  177  A    between atoms: _453  and  _454
REMARK  178  A    between atoms: _454  and  _455
REMARK  179  A    between atoms: _459  and  _461
REMARK  180  A    between atoms: _461  and  _462
REMARK  181  A    between atoms: _461  and  _464
REMARK  182  A    between atoms: _464  and  _465
REMARK  183  A    between atoms: _470  and  _472
REMARK  184  A    between atoms: _472  and  _473
REMARK  185  A    between atoms: _475  and  _477
REMARK  186  A    between atoms: _477  and  _478
REMARK  187  A    between atoms: _477  and  _480
REMARK  188  A    between atoms: _480  and  _481
REMARK  189  A    between atoms: _481  and  _482
REMARK  190  A    between atoms: _482  and  _483
REMARK  191  A    between atoms: _483  and  _484
REMARK  192  A    between atoms: _488  and  _490
REMARK  193  A    between atoms: _490  and  _491
REMARK  194  A    between atoms: _490  and  _493
REMARK  195  A    between atoms: _493  and  _494
REMARK  196  A    between atoms: _494  and  _495
REMARK  197  A    between atoms: _495  and  _496
REMARK  198  A    between atoms: _505  and  _507
REMARK  199  A    between atoms: _507  and  _508
REMARK  200  A    between atoms: _507  and  _510
REMARK  201  A    between atoms: _510  and  _511
REMARK  202  A    between atoms: _516  and  _517
REMARK  203  A    between atoms: _519  and  _521
REMARK  204  A    between atoms: _521  and  _522
REMARK  205  A    between atoms: _521  and  _524
REMARK  206  A    between atoms: _524  and  _525
REMARK  207  A    between atoms: _525  and  _526
REMARK  208  A    between atoms: _526  and  _527
REMARK  209  A    between atoms: _527  and  _528
REMARK  210  A    between atoms: _532  and  _534
REMARK  211  A    between atoms: _534  and  _535
REMARK  212  A    between atoms: _534  and  _537
REMARK  213  A    between atoms: _537  and  _538
REMARK  214  A    between atoms: _540  and  _542
REMARK  215  A    between atoms: _542  and  _543
REMARK  216  A    between atoms: _542  and  _545
REMARK  217  A    between atoms: _545  and  _546
REMARK  218  A    between atoms: _549  and  _551
REMARK  219  A    between atoms: _551  and  _552
REMARK  220  A    between atoms: _551  and  _554
REMARK  221  A    between atoms: _554  and  _555
REMARK  222  A    between atoms: _555  and  _556
REMARK  223  A    between atoms: _559  and  _561
REMARK  224  A    between atoms: _561  and  _562
REMARK  225  A    between atoms: _565  and  _567
REMARK  226  A    between atoms: _567  and  _568
REMARK  227  A    between atoms: _567  and  _570
REMARK  228  A    between atoms: _570  and  _571
REMARK  229  A    between atoms: _573  and  _575
REMARK  230  A    between atoms: _575  and  _576
REMARK  231  A    between atoms: _578  and  _580
REMARK  232  A    between atoms: _580  and  _581
REMARK  233  A    between atoms: _580  and  _583
REMARK  234  A    between atoms: _583  and  _584
REMARK  235  A    between atoms: _587  and  _589
REMARK  236  A    between atoms: _589  and  _590
REMARK  237  A    between atoms: _592  and  _594
REMARK  238  A    between atoms: _594  and  _595
REMARK  239  A    between atoms: _594  and  _597
REMARK  240  A    between atoms: _597  and  _598
REMARK  241  A    between atoms: _603  and  _605
REMARK  242  A    between atoms: _605  and  _606
REMARK  243  A    between atoms: _605  and  _608
REMARK  244  A    between atoms: _608  and  _609
REMARK  245  A    between atoms: _609  and  _610
REMARK  246  A    between atoms: _617  and  _618
REMARK  247  A    between atoms: _618  and  _634
REMARK  248  A    between atoms: _619  and  _621
REMARK  249  A    between atoms: _621  and  _622
REMARK  250  A    between atoms: _622  and  _623
REMARK  251  A    between atoms: _627  and  _629
REMARK  252  A    between atoms: _629  and  _630
REMARK  253  A    between atoms: _629  and  _637
REMARK  254  A    between atoms: _630  and  _631
REMARK  255  A    between atoms: _631  and  _632
REMARK  256  A    between atoms: _632  and  _633
REMARK  257  A    between atoms: _633  and  _634
REMARK  258  A    between atoms: _639  and  _641
REMARK  259  A    between atoms: _641  and  _642
REMARK  260  A    between atoms: _641  and  _644
REMARK  261  A    between atoms: _644  and  _645
REMARK  262  A    between atoms: _648  and  _650
REMARK  263  A    between atoms: _650  and  _651
REMARK  264  A    between atoms: _653  and  _655
REMARK  265  A    between atoms: _655  and  _656
REMARK  266  A    between atoms: _659  and  _661
REMARK  267  A    between atoms: _661  and  _662
REMARK  268  A    between atoms: _661  and  _664
REMARK  269  A    between atoms: _664  and  _665
REMARK  270  A    between atoms: _670  and  _671
REMARK                            x       y       z     vdW  Elec       q    Type
REMARK                         _______ _______ _______ _____ _____    ______ ____
ROOT
ATOM      1  C   LEU A   1      33.695  20.863  40.492  0.00  0.00    +0.238 C 
ATOM      2  O   LEU A   1      33.237  21.759  41.201  0.00  0.00    -0.274 OA
ATOM      3  N   GLU A   2      33.026  20.317  39.478  0.00  0.00    -0.298 N 
ATOM      4  H   GLU A   2      33.458  19.534  38.947  0.00  0.00    +0.150 HD
ENDROOT
BRANCH   1   5
ATOM      5  CA  LEU A   1      35.088  20.309  40.751  0.00  0.00    +0.145 C 
BRANCH   5   6
ATOM      6  N   LEU A   1      35.386  19.184  39.875  0.00  0.00    -0.238 NA
ATOM      7  H   LEU A   1      35.905  19.342  38.988  0.00  0.00    +0.142 HD
ENDBRANCH   5   6
BRANCH   5   8
ATOM      8  CB  LEU A   1      36.139  21.407  40.628  0.00  0.00    +0.026 C 
BRANCH   8   9
ATOM      9  CG  LEU A   1      37.178  21.218  41.738  0.00  0.00    +0.002 C 
ATOM     10  CD2 LEU A   1      37.793  22.527  42.134  0.00  0.00    +0.000 C 
ATOM     11  CD1 LEU A   1      38.240  20.185  41.323  0.00  0.00    +0.000 C 
ENDBRANCH   8   9
ENDBRANCH   5   8
ENDBRANCH   1   5
BRANCH   3  12
ATOM     12  CA  GLU A   2      31.702  20.792  39.095  0.00  0.00    +0.137 C 
BRANCH  12  13
ATOM     13  C   GLU A   2      30.742  19.647  38.792  0.00  0.00    +0.227 C 
ATOM     14  O   GLU A   2      31.104  18.688  38.108  0.00  0.00    -0.286 OA
ENDBRANCH  12  13
BRANCH  12  15
ATOM     15  CB  GLU A   2      31.795  21.739  37.890  0.00  0.00    +0.039 C 
BRANCH  15  16
ATOM     16  CG  GLU A   2      32.669  22.973  38.140  0.00  0.00    +0.116 C 
BRANCH  16  17
ATOM     17  CD  GLU A   2      32.615  23.981  37.014  0.00  0.00    +0.365 C 
ATOM     18  OE2 GLU A   2      33.526  24.831  36.947  0.00  0.00    -0.246 OA
ATOM     19  OE1 GLU A   2      31.669  23.929  36.195  0.00  0.00    -0.246 OA
ENDBRANCH  16  17
ENDBRANCH  15  16
ENDBRANCH  12  15
ENDBRANCH   3  12
TORSDOF 9
REMARK  Name = ../refined-set-2016/3g2k/3g2k_pocket.pdb
REMARK  270 active torsions:
REMARK  status: ('A' for Active; 'I' for Inactive)
REMARK    1  A    between atoms: _1  and  _3
REMARK    2  A    between atoms: _3  and  _4
REMARK    3  A    between atoms: _3  and  _6
REMARK    4  A    between atoms: _6  and  _7
REMARK    5  A    between atoms: _12  and  _13
REMARK    6  A    between atoms: _15  and  _17
REMARK    7  A    between atoms: _17  and  _18
REMARK    8  A    between atoms: _17  and  _20
REMARK    9  A    between atoms: _20  and  _21
REMARK   10  A    between atoms: _24  and  _26
REMARK   11  A    between atoms: _26  and  _27
REMARK   12  A    between atoms: _26  and  _29
REMARK   13  A    between atoms: _29  and  _30
REMARK   14  A    between atoms: _30  and  _31
REMARK   15  A    between atoms: _34  and  _36
REMARK   16  A    between atoms: _36  and  _37
REMARK   17  A    between atoms: _36  and  _39
REMARK   18  A    between atoms: _39  and  _40
REMARK   19  A    between atoms: _45  and  _47
REMARK   20  A    between atoms: _47  and  _48
REMARK   21  A    between atoms: _50  and  _52
REMARK   22  A    between atoms: _52  and  _53
REMARK   23  A    between atoms: _55  and  _57
REMARK   24  A    between atoms: _57  and  _58
REMARK   25  A    between atoms: _57  and  _60
REMARK   26  A    between atoms: _60  and  _61
REMARK   27  A    between atoms: _64  and  _66
REMARK   28  A    between atoms: _66  and  _67
REMARK   29  A    between atoms: _69  and  _71
REMARK   30  A    between atoms: _71  and  _72
REMARK   31  A    between atoms: _71  and  _74
REMARK   32  A    between atoms: _74  and  _75
REMARK   33  A    between atoms: _75  and  _76
REMARK   34  A    between atoms: _76  and  _77
REMARK   35  A    between atoms: _86  and  _88
REMARK   36  A    between atoms: _88  and  _89
REMARK   37  A    between atoms: _88  and  _91
REMARK   38  A    between atoms: _91  and  _92
REMARK   39  A    between atoms: _95  and  _97
REMARK   40  A    between atoms: _97  and  _98
REMARK   41  A    between atoms: _101  and  _103
REMARK   42  A    between atoms: _103  and  _104
REMARK   43  A    between atoms: _103  and  _106
REMARK   44  A    between atoms: _106  and  _107
REMARK   45  A    between atoms: _113  and  _115
REMARK   46  A    between atoms: _115  and  _116
REMARK   47  A    between atoms: _115  and  _118
REMARK   48  A    between atoms: _118  and  _119
REMARK   49  A    between atoms: _124  and  _125
REMARK   50  A    between atoms: _128  and  _129
REMARK   51  A    between atoms: _134  and  _136
REMARK   52  A    between atoms: _136  and  _137
REMARK   53  A    between atoms: _136  and  _139
REMARK   54  A    between atoms: _139  and  _140
REMARK   55  A    between atoms: _145  and  _147
REMARK   56  A    between atoms: _147  and  _148
REMARK   57  A    between atoms: _147  and  _150
REMARK   58  A    between atoms: _150  and  _151
REMARK   59  A    between atoms: _154  and  _156
REMARK   60  A    between atoms: _156  and  _157
REMARK   61  A    between atoms: _156  and  _159
REMARK   62  A    between atoms: _159  and  _160
REMARK   63  A    between atoms: _165  and  _167
REMARK   64  A    between atoms: _167  and  _168
REMARK   65  A    between atoms: _167  and  _170
REMARK   66  A    between atoms: _170  and  _171
REMARK   67  A    between atoms: _177  and  _179
REMARK   68  A    between atoms: _179  and  _180
REMARK   69  A    between atoms: _179  and  _182
REMARK   70  A    between atoms: _182  and  _183
REMARK   71  A    between atoms: _189  and  _191
REMARK   72  A    between atoms: _191  and  _192
REMARK   73  A    between atoms: _191  and  _194
REMARK   74  A    between atoms: _194  and  _195
REMARK   75  A    between atoms: _195  and  _196
REMARK   76  A    between atoms: _199  and  _201
REMARK   77  A    between atoms: _201  and  _202
REMARK   78  A    between atoms: _201  and  _204
REMARK   79  A    between atoms: _204  and  _205
REMARK   80  A    between atoms: _205  and  _206
REMARK   81  A    between atoms: _206  and  _207
REMARK   82  A    between atoms: _216  and  _218
REMARK   83  A    between atoms: _218  and  _219
REMARK   84  A    between atoms: _218  and  _221
REMARK   85  A    between atoms: _221  and  _222
REMARK   86  A    between atoms: _222  and  _223
REMARK   87  A    between atoms: _226  and  _228
REMARK   88  A    between atoms: _228  and  _229
REMARK   89  A    between atoms: _228  and  _231
REMARK   90  A    between atoms: _231  and  _232
REMARK   91  A    between atoms: _237  and  _239
REMARK   92  A    between atoms: _239  and  _240
REMARK   93  A    between atoms: _239  and  _242
REMARK   94  A    between atoms: _242  and  _243
REMARK   95  A    between atoms: _246  and  _248
REMARK   96  A    between atoms: _248  and  _249
REMARK   97  A    between atoms: _248  and  _251
REMARK   98  A    between atoms: _251  and  _252
REMARK   99  A    between atoms: _255  and  _257
REMARK  100  A    between atoms: _257  and  _258
REMARK  101  A    between atoms: _257  and  _260
REMARK  102  A    between atoms: _260  and  _261
REMARK  103  A    between atoms: _266  and  _268
REMARK  104  A    between atoms: _268  and  _269
REMARK  105  A    between atoms: _268  and  _271
REMARK  106  A    between atoms: _271  and  _272
REMARK  107  A    between atoms: _277  and  _278
REMARK  108  A    between atoms: _280  and  _282
REMARK  109  A    between atoms: _282  and  _283
REMARK  110  A    between atoms: _282  and  _285
REMARK  111  A    between atoms: _285  and  _286
REMARK  112  A    between atoms: _289  and  _291
REMARK  113  A    between atoms: _291  and  _292
REMARK  114  A    between atoms: _291  and  _294
REMARK  115  A    between atoms: _294  and  _295
REMARK  116  A    between atoms: _300  and  _302
REMARK  117  A    between atoms: _302  and  _303
REMARK  118  A    between atoms: _302  and  _305
REMARK  119  A    between atoms: _305  and  _306
REMARK  120  A    between atoms: _311  and  _313
REMARK  121  A    between atoms: _313  and  _314
REMARK  122  A    between atoms: _313  and  _316
REMARK  123  A    between atoms: _316  and  _317
REMARK  124  A    between atoms: _320  and  _322
REMARK  125  A    between atoms: _322  and  _323
REMARK  126  A    between atoms: _322  and  _325
REMARK  127  A    between atoms: _328  and  _330
REMARK  128  A    between atoms: _330  and  _331
REMARK  129  A    between atoms: _330  and  _333
REMARK  130  A    between atoms: _333  and  _334
REMARK  131  A    between atoms: _337  and  _339
REMARK  132  A    between atoms: _339  and  _340
REMARK  133  A    between atoms: _339  and  _342
REMARK  134  A    between atoms: _342  and  _343
REMARK  135  A    between atoms: _343  and  _344
REMARK  136  A    between atoms: _347  and  _349
REMARK  137  A    between atoms: _349  and  _350
REMARK  138  A    between atoms: _353  and  _355
REMARK  139  A    between atoms: _355  and  _356
REMARK  140  A    between atoms: _355  and  _358
REMARK  141  A    between atoms: _358  and  _359
REMARK  142  A    between atoms: _362  and  _364
REMARK  143  A    between atoms: _364  and  _365
REMARK  144  A    between atoms: _364  and  _367
REMARK  145  A    between atoms: _367  and  _368
REMARK  146  A    between atoms: _368  and  _369
REMARK  147  A    between atoms: _372  and  _374
REMARK  148  A    between atoms: _374  and  _375
REMARK  149  A    between atoms: _374  and  _377
REMARK  150  A    between atoms: _377  and  _378
REMARK  151  A    between atoms: _378  and  _379
REMARK  152  A    between atoms: _379  and  _380
REMARK  153  A    between atoms: _389  and  _391
REMARK  154  A    between atoms: _391  and  _392
REMARK  155  A    between atoms: _391  and  _394
REMARK  156  A    between atoms: _394  and  _395
REMARK  157  A    between atoms: _405  and  _407
REMARK  158  A    between atoms: _407  and  _408
REMARK  159  A    between atoms: _407  and  _410
REMARK  160  A    between atoms: _410  and  _411
REMARK  161  A    between atoms: _416  and  _418
REMARK  162  A    between atoms: _418  and  _419
REMARK  163  A    between atoms: _421  and  _423
REMARK  164  A    between atoms: _423  and  _424
REMARK  165  A    between atoms: _423  and  _426
REMARK  166  A    between atoms: _429  and  _431
REMARK  167  A    between atoms: _431  and  _432
REMARK  168  A    between atoms: _435  and  _437
REMARK  169  A    between atoms: _437  and  _438
REMARK  170  A    between atoms: _437  and  _440
REMARK  171  A    between atoms: _440  and  _441
REMARK  172  A    between atoms: _446  and  _448
REMARK  173  A    between atoms: _448  and  _449
REMARK  174  A    between atoms: _448  and  _451
REMARK  175  A    between atoms: _451  and  _452
REMARK  176  A    between atoms: _452  and  _453
REMARK  177  A    between atoms: _453  and  _454
REMARK  178  A    between atoms: _454  and  _455
REMARK  179  A    between atoms: _459  and  _461
REMARK  180  A    between atoms: _461  and  _462
REMARK  181  A    between atoms: _461  and  _464
REMARK  182  A    between atoms: _464  and  _465
REMARK  183  A    between atoms: _470  and  _472
REMARK  184  A    between atoms: _472  and  _473
REMARK  185  A    between atoms: _475  and  _477
REMARK  186  A    between atoms: _477  and  _478
REMARK  187  A    between atoms: _477  and  _480
REMARK  188  A    between atoms: _480  and  _481
REMARK  189  A    between atoms: _481  and  _482
REMARK  190  A    between atoms: _482  and  _483
REMARK  191  A    between atoms: _483  and  _484
REMARK  192  A    between atoms: _488  and  _490
REMARK  193  A    between atoms: _490  and  _491
REMARK  194  A    between atoms: _490  and  _493
REMARK  195  A    between atoms: _493  and  _494
REMARK  196  A    between atoms: _494  and  _495
REMARK  197  A    between atoms: _495  and  _496
REMARK  198  A    between atoms: _505  and  _507
REMARK  199  A    between atoms: _507  and  _508
REMARK  200  A    between atoms: _507  and  _510
REMARK  201  A    between atoms: _510  and  _511
REMARK  202  A    between atoms: _516  and  _517
REMARK  203  A    between atoms: _519  and  _521
REMARK  204  A    between atoms: _521  and  _522
REMARK  205  A    between atoms: _521  and  _524
REMARK  206  A    between atoms: _524  and  _525
REMARK  207  A    between atoms: _525  and  _526
REMARK  208  A    between atoms: _526  and  _527
REMARK  209  A    between atoms: _527  and  _528
REMARK  210  A    between atoms: _532  and  _534
REMARK  211  A    between atoms: _534  and  _535
REMARK  212  A    between atoms: _534  and  _537
REMARK  213  A    between atoms: _537  and  _538
REMARK  214  A    between atoms: _540  and  _542
REMARK  215  A    between atoms: _542  and  _543
REMARK  216  A    between atoms: _542  and  _545
REMARK  217  A    between atoms: _545  and  _546
REMARK  218  A    between atoms: _549  and  _551
REMARK  219  A    between atoms: _551  and  _552
REMARK  220  A    between atoms: _551  and  _554
REMARK  221  A    between atoms: _554  and  _555
REMARK  222  A    between atoms: _555  and  _556
REMARK  223  A    between atoms: _559  and  _561
REMARK  224  A    between atoms: _561  and  _562
REMARK  225  A    between atoms: _565  and  _567
REMARK  226  A    between atoms: _567  and  _568
REMARK  227  A    between atoms: _567  and  _570
REMARK  228  A    between atoms: _570  and  _571
REMARK  229  A    between atoms: _573  and  _575
REMARK  230  A    between atoms: _575  and  _576
REMARK  231  A    between atoms: _578  and  _580
REMARK  232  A    between atoms: _580  and  _581
REMARK  233  A    between atoms: _580  and  _583
REMARK  234  A    between atoms: _583  and  _584
REMARK  235  A    between atoms: _587  and  _589
REMARK  236  A    between atoms: _589  and  _590
REMARK  237  A    between atoms: _592  and  _594
REMARK  238  A    between atoms: _594  and  _595
REMARK  239  A    between atoms: _594  and  _597
REMARK  240  A    between atoms: _597  and  _598
REMARK  241  A    between atoms: _603  and  _605
REMARK  242  A    between atoms: _605  and  _606
REMARK  243  A    between atoms: _605  and  _608
REMARK  244  A    between atoms: _608  and  _609
REMARK  245  A    between atoms: _609  and  _610
REMARK  246  A    between atoms: _617  and  _618
REMARK  247  A    between atoms: _618  and  _634
REMARK  248  A    between atoms: _619  and  _621
REMARK  249  A    between atoms: _621  and  _622
REMARK  250  A    between atoms: _622  and  _623
REMARK  251  A    between atoms: _627  and  _629
REMARK  252  A    between atoms: _629  and  _630
REMARK  253  A    between atoms: _629  and  _637
REMARK  254  A    between atoms: _630  and  _631
REMARK  255  A    between atoms: _631  and  _632
REMARK  256  A    between atoms: _632  and  _633
REMARK  257  A    between atoms: _633  and  _634
REMARK  258  A    between atoms: _639  and  _641
REMARK  259  A    between atoms: _641  and  _642
REMARK  260  A    between atoms: _641  and  _644
REMARK  261  A    between atoms: _644  and  _645
REMARK  262  A    between atoms: _648  and  _650
REMARK  263  A    between atoms: _650  and  _651
REMARK  264  A    between atoms: _653  and  _655
REMARK  265  A    between atoms: _655  and  _656
REMARK  266  A    between atoms: _659  and  _661
REMARK  267  A    between atoms: _661  and  _662
REMARK  268  A    between atoms: _661  and  _664
REMARK  269  A    between atoms: _664  and  _665
REMARK  270  A    between atoms: _670  and  _671
REMARK                            x       y       z     vdW  Elec       q    Type
REMARK                         _______ _______ _______ _____ _____    ______ ____
ROOT
ATOM      1  C   GLY A   5      28.505  19.862  34.524  0.00  0.00    +0.243 C 
ATOM      2  O   GLY A   5      28.167  18.906  35.220  0.00  0.00    -0.273 OA
ATOM      3  N   ARG A   6      27.848  20.214  33.419  0.00  0.00    -0.297 N 
ATOM      4  H   ARG A   6      28.190  21.022  32.861  0.00  0.00    +0.150 HD
ENDROOT
BRANCH   3   5
ATOM      5  CA  ARG A   6      26.646  19.484  32.967  0.00  0.00    +0.149 C 
BRANCH   5   6
ATOM      6  C   ARG A   6      27.028  18.119  32.416  0.00  0.00    +0.241 C 
ATOM      7  O   ARG A   6      26.283  17.159  32.579  0.00  0.00    -0.273 OA
ATOM      8  N   LEU A   7      28.187  18.032  31.766  0.00  0.00    -0.297 N 
ATOM      9  H   LEU A   7      28.759  18.889  31.624  0.00  0.00    +0.150 HD
BRANCH   8  10
ATOM     10  CA  LEU A   7      28.668  16.756  31.250  0.00  0.00    +0.149 C 
BRANCH  10  11
ATOM     11  C   LEU A   7      28.818  15.752  32.387  0.00  0.00    +0.241 C 
ATOM     12  N   ALA A   8      29.412  16.188  33.501  0.00  0.00    -0.298 N 
ATOM     13  H   ALA A   8      29.779  17.160  33.533  0.00  0.00    +0.150 HD
ATOM     14  O   LEU A   7      28.381  14.614  32.264  0.00  0.00    -0.273 OA
BRANCH  12  15
ATOM     15  CA  ALA A   8      29.558  15.335  34.672  0.00  0.00    +0.137 C 
ATOM     16  CB  ALA A   8      30.291  16.069  35.788  0.00  0.00    +0.030 C 
BRANCH  15  17
ATOM     17  C   ALA A   8      28.197  14.814  35.162  0.00  0.00    +0.227 C 
ATOM     18  O   ALA A   8      28.085  13.658  35.531  0.00  0.00    -0.286 OA
ENDBRANCH  15  17
ENDBRANCH  12  15
ENDBRANCH  10  11
BRANCH  10  19
ATOM     19  CB  LEU A   7      29.987  16.908  30.482  0.00  0.00    +0.029 C 
BRANCH  19  20
ATOM     20  CG  LEU A   7      30.460  15.645  29.740  0.00  0.00    +0.002 C 
ATOM     21  CD2 LEU A   7      31.949  15.716  29.406  0.00  0.00    +0.000 C 
ATOM     22  CD1 LEU A   7      29.636  15.398  28.476  0.00  0.00    +0.000 C 
ENDBRANCH  19  20
ENDBRANCH  10  19
ENDBRANCH   8  10
ENDBRANCH   5   6
BRANCH   5  23
ATOM     23  CB  ARG A   6      25.892  20.279  31.892  0.00  0.00    +0.033 C 
BRANCH  23  24
ATOM     24  CG  ARG A   6      24.377  19.991  31.683  0.00  0.00    +0.045 C 
BRANCH  24  25
ATOM     25  CD  ARG A   6      23.844  18.586  32.026  0.00  0.00    +0.174 C 
BRANCH  25  26
ATOM     26  NE  ARG A   6      23.040  18.621  33.230  0.00  0.00    -0.265 N 
ATOM     27  HE  ARG A   6      23.010  19.522  33.749  0.00  0.00    +0.259 HD
ATOM     28  CZ  ARG A   6      22.334  17.610  33.738  0.00  0.00    +0.342 C 
ATOM     29  NH2 ARG A   6      21.663  17.818  34.852  0.00  0.00    -0.292 N 
ATOM     30 HH21 ARG A   6      21.693  18.751  35.311  0.00  0.00    +0.255 HD
ATOM     31 HH22 ARG A   6      21.103  17.049  35.273  0.00  0.00    +0.255 HD
ATOM     32  NH1 ARG A   6      22.295  16.409  33.168  0.00  0.00    -0.292 N 
ATOM     33 HH11 ARG A   6      21.731  15.648  33.597  0.00  0.00    +0.255 HD
ATOM     34 HH12 ARG A   6      22.828  16.231  32.293  0.00  0.00    +0.255 HD
ENDBRANCH  25  26
ENDBRANCH  24  25
ENDBRANCH  23  24
ENDBRANCH   5  23
ENDBRANCH   3   5
BRANCH   1  35
ATOM     35  CA  GLY A   5      29.713  20.714  34.911  0.00  0.00    +0.176 C 
BRANCH  35  37
ATOM     36  C   LEU A   4      31.194  20.267  33.020  0.00  0.00    +0.241 C 
ATOM     37  N   GLY A   5      30.503  21.141  33.754  0.00  0.00    -0.295 N 
ATOM     38  H   GLY A   5      30.526  22.149  33.499  0.00  0.00    +0.150 HD
ATOM     39  O   LEU A   4      31.257  19.066  33.291  0.00  0.00    -0.273 OA
BRANCH  36  40
ATOM     40  CA  LEU A   4      31.945  20.829  31.803  0.00  0.00    +0.149 C 
BRANCH  40  42
ATOM     41  C   GLY A   3      30.006  21.406  30.433  0.00  0.00    +0.243 C 
ATOM     42  N   LEU A   4      31.117  21.788  31.060  0.00  0.00    -0.297 N 
ATOM     43  H   LEU A   4      31.405  22.787  31.023  0.00  0.00    +0.150 HD
ATOM     44  O   GLY A   3      29.621  20.235  30.410  0.00  0.00    -0.273 OA
BRANCH  41  45
ATOM     45  CA  GLY A   3      29.226  22.493  29.711  0.00  0.00    +0.176 C 
BRANCH  45  48
ATOM     46  C   GLY A   2      28.460  23.850  31.613  0.00  0.00    +0.243 C 
ATOM     47  O   GLY A   2      28.147  22.878  32.306  0.00  0.00    -0.273 OA
ATOM     48  N   GLY A   3      29.084  23.760  30.437  0.00  0.00    -0.295 N 
ATOM     49  H   GLY A   3      29.486  24.623  30.018  0.00  0.00    +0.150 HD
BRANCH  46  50
ATOM     50  CA  GLY A   2      28.159  25.248  32.092  0.00  0.00    +0.176 C 
BRANCH  50  53
ATOM     51  C   ASN A   1      28.596  26.678  34.003  0.00  0.00    +0.239 C 
ATOM     52  O   ASN A   1      27.925  27.594  33.531  0.00  0.00    -0.274 OA
ATOM     53  N   GLY A   2      28.731  25.497  33.408  0.00  0.00    -0.296 N 
ATOM     54  H   GLY A   2      29.254  24.738  33.890  0.00  0.00    +0.150 HD
BRANCH  51  55
ATOM     55  CA  ASN A   1      29.350  26.861  35.314  0.00  0.00    +0.154 C 
BRANCH  55  56
ATOM     56  N   ASN A   1      29.405  25.656  36.139  0.00  0.00    -0.238 NA
ATOM     57  H   ASN A   1      30.164  24.967  35.966  0.00  0.00    +0.142 HD
ENDBRANCH  55  56
BRANCH  55  58
ATOM     58  CB  ASN A   1      30.767  27.338  35.001  0.00  0.00    +0.111 C 
BRANCH  58  59
ATOM     59  CG  ASN A   1      31.367  28.132  36.129  0.00  0.00    +0.221 C 
ATOM     60  ND2 ASN A   1      32.274  27.510  36.875  0.00  0.00    -0.329 N 
ATOM     61 HD21 ASN A   1      32.727  28.009  37.667  0.00  0.00    +0.145 HD
ATOM     62 HD22 ASN A   1      32.531  26.524  36.667  0.00  0.00    +0.145 HD
ATOM     63  OD1 ASN A   1      31.023  29.298  36.328  0.00  0.00    -0.275 OA
ENDBRANCH  58  59
ENDBRANCH  55  58
ENDBRANCH  51  55
ENDBRANCH  50  53
ENDBRANCH  46  50
ENDBRANCH  45  48
ENDBRANCH  41  45
ENDBRANCH  40  42
BRANCH  40  64
ATOM     64  CB  LEU A   4      33.280  21.475  32.221  0.00  0.00    +0.029 C 
BRANCH  64  65
ATOM     65  CG  LEU A   4      34.260  20.700  33.114  0.00  0.00    +0.002 C 
ATOM     66  CD2 LEU A   4      33.908  20.903  34.576  0.00  0.00    +0.000 C 
ATOM     67  CD1 LEU A   4      35.706  21.142  32.860  0.00  0.00    +0.000 C 
ENDBRANCH  64  65
ENDBRANCH  40  64
ENDBRANCH  36  40
ENDBRANCH  35  37
ENDBRANCH   1  35
TORSDOF 26
REMARK  Name = ../refined-set-2016/3g2k/3g2k_pocket.pdb
REMARK  270 active torsions:
REMARK  status: ('A' for Active; 'I' for Inactive)
REMARK    1  A    between atoms: _1  and  _3
REMARK    2  A    between atoms: _3  and  _4
REMARK    3  A    between atoms: _3  and  _6
REMARK    4  A    between atoms: _6  and  _7
REMARK    5  A    between atoms: _12  and  _13
REMARK    6  A    between atoms: _15  and  _17
REMARK    7  A    between atoms: _17  and  _18
REMARK    8  A    between atoms: _17  and  _20
REMARK    9  A    between atoms: _20  and  _21
REMARK   10  A    between atoms: _24  and  _26
REMARK   11  A    between atoms: _26  and  _27
REMARK   12  A    between atoms: _26  and  _29
REMARK   13  A    between atoms: _29  and  _30
REMARK   14  A    between atoms: _30  and  _31
REMARK   15  A    between atoms: _34  and  _36
REMARK   16  A    between atoms: _36  and  _37
REMARK   17  A    between atoms: _36  and  _39
REMARK   18  A    between atoms: _39  and  _40
REMARK   19  A    between atoms: _45  and  _47
REMARK   20  A    between atoms: _47  and  _48
REMARK   21  A    between atoms: _50  and  _52
REMARK   22  A    between atoms: _52  and  _53
REMARK   23  A    between atoms: _55  and  _57
REMARK   24  A    between atoms: _57  and  _58
REMARK   25  A    between atoms: _57  and  _60
REMARK   26  A    between atoms: _60  and  _61
REMARK   27  A    between atoms: _64  and  _66
REMARK   28  A    between atoms: _66  and  _67
REMARK   29  A    between atoms: _69  and  _71
REMARK   30  A    between atoms: _71  and  _72
REMARK   31  A    between atoms: _71  and  _74
REMARK   32  A    between atoms: _74  and  _75
REMARK   33  A    between atoms: _75  and  _76
REMARK   34  A    between atoms: _76  and  _77
REMARK   35  A    between atoms: _86  and  _88
REMARK   36  A    between atoms: _88  and  _89
REMARK   37  A    between atoms: _88  and  _91
REMARK   38  A    between atoms: _91  and  _92
REMARK   39  A    between atoms: _95  and  _97
REMARK   40  A    between atoms: _97  and  _98
REMARK   41  A    between atoms: _101  and  _103
REMARK   42  A    between atoms: _103  and  _104
REMARK   43  A    between atoms: _103  and  _106
REMARK   44  A    between atoms: _106  and  _107
REMARK   45  A    between atoms: _113  and  _115
REMARK   46  A    between atoms: _115  and  _116
REMARK   47  A    between atoms: _115  and  _118
REMARK   48  A    between atoms: _118  and  _119
REMARK   49  A    between atoms: _124  and  _125
REMARK   50  A    between atoms: _128  and  _129
REMARK   51  A    between atoms: _134  and  _136
REMARK   52  A    between atoms: _136  and  _137
REMARK   53  A    between atoms: _136  and  _139
REMARK   54  A    between atoms: _139  and  _140
REMARK   55  A    between atoms: _145  and  _147
REMARK   56  A    between atoms: _147  and  _148
REMARK   57  A    between atoms: _147  and  _150
REMARK   58  A    between atoms: _150  and  _151
REMARK   59  A    between atoms: _154  and  _156
REMARK   60  A    between atoms: _156  and  _157
REMARK   61  A    between atoms: _156  and  _159
REMARK   62  A    between atoms: _159  and  _160
REMARK   63  A    between atoms: _165  and  _167
REMARK   64  A    between atoms: _167  and  _168
REMARK   65  A    between atoms: _167  and  _170
REMARK   66  A    between atoms: _170  and  _171
REMARK   67  A    between atoms: _177  and  _179
REMARK   68  A    between atoms: _179  and  _180
REMARK   69  A    between atoms: _179  and  _182
REMARK   70  A    between atoms: _182  and  _183
REMARK   71  A    between atoms: _189  and  _191
REMARK   72  A    between atoms: _191  and  _192
REMARK   73  A    between atoms: _191  and  _194
REMARK   74  A    between atoms: _194  and  _195
REMARK   75  A    between atoms: _195  and  _196
REMARK   76  A    between atoms: _199  and  _201
REMARK   77  A    between atoms: _201  and  _202
REMARK   78  A    between atoms: _201  and  _204
REMARK   79  A    between atoms: _204  and  _205
REMARK   80  A    between atoms: _205  and  _206
REMARK   81  A    between atoms: _206  and  _207
REMARK   82  A    between atoms: _216  and  _218
REMARK   83  A    between atoms: _218  and  _219
REMARK   84  A    between atoms: _218  and  _221
REMARK   85  A    between atoms: _221  and  _222
REMARK   86  A    between atoms: _222  and  _223
REMARK   87  A    between atoms: _226  and  _228
REMARK   88  A    between atoms: _228  and  _229
REMARK   89  A    between atoms: _228  and  _231
REMARK   90  A    between atoms: _231  and  _232
REMARK   91  A    between atoms: _237  and  _239
REMARK   92  A    between atoms: _239  and  _240
REMARK   93  A    between atoms: _239  and  _242
REMARK   94  A    between atoms: _242  and  _243
REMARK   95  A    between atoms: _246  and  _248
REMARK   96  A    between atoms: _248  and  _249
REMARK   97  A    between atoms: _248  and  _251
REMARK   98  A    between atoms: _251  and  _252
REMARK   99  A    between atoms: _255  and  _257
REMARK  100  A    between atoms: _257  and  _258
REMARK  101  A    between atoms: _257  and  _260
REMARK  102  A    between atoms: _260  and  _261
REMARK  103  A    between atoms: _266  and  _268
REMARK  104  A    between atoms: _268  and  _269
REMARK  105  A    between atoms: _268  and  _271
REMARK  106  A    between atoms: _271  and  _272
REMARK  107  A    between atoms: _277  and  _278
REMARK  108  A    between atoms: _280  and  _282
REMARK  109  A    between atoms: _282  and  _283
REMARK  110  A    between atoms: _282  and  _285
REMARK  111  A    between atoms: _285  and  _286
REMARK  112  A    between atoms: _289  and  _291
REMARK  113  A    between atoms: _291  and  _292
REMARK  114  A    between atoms: _291  and  _294
REMARK  115  A    between atoms: _294  and  _295
REMARK  116  A    between atoms: _300  and  _302
REMARK  117  A    between atoms: _302  and  _303
REMARK  118  A    between atoms: _302  and  _305
REMARK  119  A    between atoms: _305  and  _306
REMARK  120  A    between atoms: _311  and  _313
REMARK  121  A    between atoms: _313  and  _314
REMARK  122  A    between atoms: _313  and  _316
REMARK  123  A    between atoms: _316  and  _317
REMARK  124  A    between atoms: _320  and  _322
REMARK  125  A    between atoms: _322  and  _323
REMARK  126  A    between atoms: _322  and  _325
REMARK  127  A    between atoms: _328  and  _330
REMARK  128  A    between atoms: _330  and  _331
REMARK  129  A    between atoms: _330  and  _333
REMARK  130  A    between atoms: _333  and  _334
REMARK  131  A    between atoms: _337  and  _339
REMARK  132  A    between atoms: _339  and  _340
REMARK  133  A    between atoms: _339  and  _342
REMARK  134  A    between atoms: _342  and  _343
REMARK  135  A    between atoms: _343  and  _344
REMARK  136  A    between atoms: _347  and  _349
REMARK  137  A    between atoms: _349  and  _350
REMARK  138  A    between atoms: _353  and  _355
REMARK  139  A    between atoms: _355  and  _356
REMARK  140  A    between atoms: _355  and  _358
REMARK  141  A    between atoms: _358  and  _359
REMARK  142  A    between atoms: _362  and  _364
REMARK  143  A    between atoms: _364  and  _365
REMARK  144  A    between atoms: _364  and  _367
REMARK  145  A    between atoms: _367  and  _368
REMARK  146  A    between atoms: _368  and  _369
REMARK  147  A    between atoms: _372  and  _374
REMARK  148  A    between atoms: _374  and  _375
REMARK  149  A    between atoms: _374  and  _377
REMARK  150  A    between atoms: _377  and  _378
REMARK  151  A    between atoms: _378  and  _379
REMARK  152  A    between atoms: _379  and  _380
REMARK  153  A    between atoms: _389  and  _391
REMARK  154  A    between atoms: _391  and  _392
REMARK  155  A    between atoms: _391  and  _394
REMARK  156  A    between atoms: _394  and  _395
REMARK  157  A    between atoms: _405  and  _407
REMARK  158  A    between atoms: _407  and  _408
REMARK  159  A    between atoms: _407  and  _410
REMARK  160  A    between atoms: _410  and  _411
REMARK  161  A    between atoms: _416  and  _418
REMARK  162  A    between atoms: _418  and  _419
REMARK  163  A    between atoms: _421  and  _423
REMARK  164  A    between atoms: _423  and  _424
REMARK  165  A    between atoms: _423  and  _426
REMARK  166  A    between atoms: _429  and  _431
REMARK  167  A    between atoms: _431  and  _432
REMARK  168  A    between atoms: _435  and  _437
REMARK  169  A    between atoms: _437  and  _438
REMARK  170  A    between atoms: _437  and  _440
REMARK  171  A    between atoms: _440  and  _441
REMARK  172  A    between atoms: _446  and  _448
REMARK  173  A    between atoms: _448  and  _449
REMARK  174  A    between atoms: _448  and  _451
REMARK  175  A    between atoms: _451  and  _452
REMARK  176  A    between atoms: _452  and  _453
REMARK  177  A    between atoms: _453  and  _454
REMARK  178  A    between atoms: _454  and  _455
REMARK  179  A    between atoms: _459  and  _461
REMARK  180  A    between atoms: _461  and  _462
REMARK  181  A    between atoms: _461  and  _464
REMARK  182  A    between atoms: _464  and  _465
REMARK  183  A    between atoms: _470  and  _472
REMARK  184  A    between atoms: _472  and  _473
REMARK  185  A    between atoms: _475  and  _477
REMARK  186  A    between atoms: _477  and  _478
REMARK  187  A    between atoms: _477  and  _480
REMARK  188  A    between atoms: _480  and  _481
REMARK  189  A    between atoms: _481  and  _482
REMARK  190  A    between atoms: _482  and  _483
REMARK  191  A    between atoms: _483  and  _484
REMARK  192  A    between atoms: _488  and  _490
REMARK  193  A    between atoms: _490  and  _491
REMARK  194  A    between atoms: _490  and  _493
REMARK  195  A    between atoms: _493  and  _494
REMARK  196  A    between atoms: _494  and  _495
REMARK  197  A    between atoms: _495  and  _496
REMARK  198  A    between atoms: _505  and  _507
REMARK  199  A    between atoms: _507  and  _508
REMARK  200  A    between atoms: _507  and  _510
REMARK  201  A    between atoms: _510  and  _511
REMARK  202  A    between atoms: _516  and  _517
REMARK  203  A    between atoms: _519  and  _521
REMARK  204  A    between atoms: _521  and  _522
REMARK  205  A    between atoms: _521  and  _524
REMARK  206  A    between atoms: _524  and  _525
REMARK  207  A    between atoms: _525  and  _526
REMARK  208  A    between atoms: _526  and  _527
REMARK  209  A    between atoms: _527  and  _528
REMARK  210  A    between atoms: _532  and  _534
REMARK  211  A    between atoms: _534  and  _535
REMARK  212  A    between atoms: _534  and  _537
REMARK  213  A    between atoms: _537  and  _538
REMARK  214  A    between atoms: _540  and  _542
REMARK  215  A    between atoms: _542  and  _543
REMARK  216  A    between atoms: _542  and  _545
REMARK  217  A    between atoms: _545  and  _546
REMARK  218  A    between atoms: _549  and  _551
REMARK  219  A    between atoms: _551  and  _552
REMARK  220  A    between atoms: _551  and  _554
REMARK  221  A    between atoms: _554  and  _555
REMARK  222  A    between atoms: _555  and  _556
REMARK  223  A    between atoms: _559  and  _561
REMARK  224  A    between atoms: _561  and  _562
REMARK  225  A    between atoms: _565  and  _567
REMARK  226  A    between atoms: _567  and  _568
REMARK  227  A    between atoms: _567  and  _570
REMARK  228  A    between atoms: _570  and  _571
REMARK  229  A    between atoms: _573  and  _575
REMARK  230  A    between atoms: _575  and  _576
REMARK  231  A    between atoms: _578  and  _580
REMARK  232  A    between atoms: _580  and  _581
REMARK  233  A    between atoms: _580  and  _583
REMARK  234  A    between atoms: _583  and  _584
REMARK  235  A    between atoms: _587  and  _589
REMARK  236  A    between atoms: _589  and  _590
REMARK  237  A    between atoms: _592  and  _594
REMARK  238  A    between atoms: _594  and  _595
REMARK  239  A    between atoms: _594  and  _597
REMARK  240  A    between atoms: _597  and  _598
REMARK  241  A    between atoms: _603  and  _605
REMARK  242  A    between atoms: _605  and  _606
REMARK  243  A    between atoms: _605  and  _608
REMARK  244  A    between atoms: _608  and  _609
REMARK  245  A    between atoms: _609  and  _610
REMARK  246  A    between atoms: _617  and  _618
REMARK  247  A    between atoms: _618  and  _634
REMARK  248  A    between atoms: _619  and  _621
REMARK  249  A    between atoms: _621  and  _622
REMARK  250  A    between atoms: _622  and  _623
REMARK  251  A    between atoms: _627  and  _629
REMARK  252  A    between atoms: _629  and  _630
REMARK  253  A    between atoms: _629  and  _637
REMARK  254  A    between atoms: _630  and  _631
REMARK  255  A    between atoms: _631  and  _632
REMARK  256  A    between atoms: _632  and  _633
REMARK  257  A    between atoms: _633  and  _634
REMARK  258  A    between atoms: _639  and  _641
REMARK  259  A    between atoms: _641  and  _642
REMARK  260  A    between atoms: _641  and  _644
REMARK  261  A    between atoms: _644  and  _645
REMARK  262  A    between atoms: _648  and  _650
REMARK  263  A    between atoms: _650  and  _651
REMARK  264  A    between atoms: _653  and  _655
REMARK  265  A    between atoms: _655  and  _656
REMARK  266  A    between atoms: _659  and  _661
REMARK  267  A    between atoms: _661  and  _662
REMARK  268  A    between atoms: _661  and  _664
REMARK  269  A    between atoms: _664  and  _665
REMARK  270  A    between atoms: _670  and  _671
REMARK                            x       y       z     vdW  Elec       q    Type
REMARK                         _______ _______ _______ _____ _____    ______ ____
ROOT
ATOM      1  CB  PHE A   1      29.154  11.507  32.969  0.00  0.00    +0.051 C 
ENDROOT
BRANCH   1   2
ATOM      2  CG  PHE A   1      29.853  11.707  31.645  0.00  0.00    -0.020 A 
ATOM      3  CD2 PHE A   1      31.234  11.842  31.595  0.00  0.00    -0.004 A 
ATOM      4  CE2 PHE A   1      31.894  12.029  30.371  0.00  0.00    -0.000 A 
ATOM      5  CZ  PHE A   1      31.164  12.085  29.191  0.00  0.00    -0.000 A 
ATOM      6  CE1 PHE A   1      29.773  11.956  29.229  0.00  0.00    -0.000 A 
ATOM      7  CD1 PHE A   1      29.131  11.776  30.453  0.00  0.00    -0.004 A 
ENDBRANCH   1   2
BRANCH   1   8
ATOM      8  CA  PHE A   1      27.677  11.114  32.842  0.00  0.00    +0.137 C 
BRANCH   8   9
ATOM      9  N   PHE A   1      26.850  12.297  32.663  0.00  0.00    -0.239 NA
ATOM     10  H   PHE A   1      27.295  13.235  32.719  0.00  0.00    +0.142 HD
ENDBRANCH   8   9
BRANCH   8  11
ATOM     11  C   PHE A   1      27.236  10.260  34.037  0.00  0.00    +0.224 C 
ATOM     12  O   PHE A   1      27.184   9.037  33.936  0.00  0.00    -0.287 OA
ENDBRANCH   8  11
ENDBRANCH   1   8
TORSDOF 4
REMARK  Name = ../refined-set-2016/3g2k/3g2k_pocket.pdb
REMARK  270 active torsions:
REMARK  status: ('A' for Active; 'I' for Inactive)
REMARK    1  A    between atoms: _1  and  _3
REMARK    2  A    between atoms: _3  and  _4
REMARK    3  A    between atoms: _3  and  _6
REMARK    4  A    between atoms: _6  and  _7
REMARK    5  A    between atoms: _12  and  _13
REMARK    6  A    between atoms: _15  and  _17
REMARK    7  A    between atoms: _17  and  _18
REMARK    8  A    between atoms: _17  and  _20
REMARK    9  A    between atoms: _20  and  _21
REMARK   10  A    between atoms: _24  and  _26
REMARK   11  A    between atoms: _26  and  _27
REMARK   12  A    between atoms: _26  and  _29
REMARK   13  A    between atoms: _29  and  _30
REMARK   14  A    between atoms: _30  and  _31
REMARK   15  A    between atoms: _34  and  _36
REMARK   16  A    between atoms: _36  and  _37
REMARK   17  A    between atoms: _36  and  _39
REMARK   18  A    between atoms: _39  and  _40
REMARK   19  A    between atoms: _45  and  _47
REMARK   20  A    between atoms: _47  and  _48
REMARK   21  A    between atoms: _50  and  _52
REMARK   22  A    between atoms: _52  and  _53
REMARK   23  A    between atoms: _55  and  _57
REMARK   24  A    between atoms: _57  and  _58
REMARK   25  A    between atoms: _57  and  _60
REMARK   26  A    between atoms: _60  and  _61
REMARK   27  A    between atoms: _64  and  _66
REMARK   28  A    between atoms: _66  and  _67
REMARK   29  A    between atoms: _69  and  _71
REMARK   30  A    between atoms: _71  and  _72
REMARK   31  A    between atoms: _71  and  _74
REMARK   32  A    between atoms: _74  and  _75
REMARK   33  A    between atoms: _75  and  _76
REMARK   34  A    between atoms: _76  and  _77
REMARK   35  A    between atoms: _86  and  _88
REMARK   36  A    between atoms: _88  and  _89
REMARK   37  A    between atoms: _88  and  _91
REMARK   38  A    between atoms: _91  and  _92
REMARK   39  A    between atoms: _95  and  _97
REMARK   40  A    between atoms: _97  and  _98
REMARK   41  A    between atoms: _101  and  _103
REMARK   42  A    between atoms: _103  and  _104
REMARK   43  A    between atoms: _103  and  _106
REMARK   44  A    between atoms: _106  and  _107
REMARK   45  A    between atoms: _113  and  _115
REMARK   46  A    between atoms: _115  and  _116
REMARK   47  A    between atoms: _115  and  _118
REMARK   48  A    between atoms: _118  and  _119
REMARK   49  A    between atoms: _124  and  _125
REMARK   50  A    between atoms: _128  and  _129
REMARK   51  A    between atoms: _134  and  _136
REMARK   52  A    between atoms: _136  and  _137
REMARK   53  A    between atoms: _136  and  _139
REMARK   54  A    between atoms: _139  and  _140
REMARK   55  A    between atoms: _145  and  _147
REMARK   56  A    between atoms: _147  and  _148
REMARK   57  A    between atoms: _147  and  _150
REMARK   58  A    between atoms: _150  and  _151
REMARK   59  A    between atoms: _154  and  _156
REMARK   60  A    between atoms: _156  and  _157
REMARK   61  A    between atoms: _156  and  _159
REMARK   62  A    between atoms: _159  and  _160
REMARK   63  A    between atoms: _165  and  _167
REMARK   64  A    between atoms: _167  and  _168
REMARK   65  A    between atoms: _167  and  _170
REMARK   66  A    between atoms: _170  and  _171
REMARK   67  A    between atoms: _177  and  _179
REMARK   68  A    between atoms: _179  and  _180
REMARK   69  A    between atoms: _179  and  _182
REMARK   70  A    between atoms: _182  and  _183
REMARK   71  A    between atoms: _189  and  _191
REMARK   72  A    between atoms: _191  and  _192
REMARK   73  A    between atoms: _191  and  _194
REMARK   74  A    between atoms: _194  and  _195
REMARK   75  A    between atoms: _195  and  _196
REMARK   76  A    between atoms: _199  and  _201
REMARK   77  A    between atoms: _201  and  _202
REMARK   78  A    between atoms: _201  and  _204
REMARK   79  A    between atoms: _204  and  _205
REMARK   80  A    between atoms: _205  and  _206
REMARK   81  A    between atoms: _206  and  _207
REMARK   82  A    between atoms: _216  and  _218
REMARK   83  A    between atoms: _218  and  _219
REMARK   84  A    between atoms: _218  and  _221
REMARK   85  A    between atoms: _221  and  _222
REMARK   86  A    between atoms: _222  and  _223
REMARK   87  A    between atoms: _226  and  _228
REMARK   88  A    between atoms: _228  and  _229
REMARK   89  A    between atoms: _228  and  _231
REMARK   90  A    between atoms: _231  and  _232
REMARK   91  A    between atoms: _237  and  _239
REMARK   92  A    between atoms: _239  and  _240
REMARK   93  A    between atoms: _239  and  _242
REMARK   94  A    between atoms: _242  and  _243
REMARK   95  A    between atoms: _246  and  _248
REMARK   96  A    between atoms: _248  and  _249
REMARK   97  A    between atoms: _248  and  _251
REMARK   98  A    between atoms: _251  and  _252
REMARK   99  A    between atoms: _255  and  _257
REMARK  100  A    between atoms: _257  and  _258
REMARK  101  A    between atoms: _257  and  _260
REMARK  102  A    between atoms: _260  and  _261
REMARK  103  A    between atoms: _266  and  _268
REMARK  104  A    between atoms: _268  and  _269
REMARK  105  A    between atoms: _268  and  _271
REMARK  106  A    between atoms: _271  and  _272
REMARK  107  A    between atoms: _277  and  _278
REMARK  108  A    between atoms: _280  and  _282
REMARK  109  A    between atoms: _282  and  _283
REMARK  110  A    between atoms: _282  and  _285
REMARK  111  A    between atoms: _285  and  _286
REMARK  112  A    between atoms: _289  and  _291
REMARK  113  A    between atoms: _291  and  _292
REMARK  114  A    between atoms: _291  and  _294
REMARK  115  A    between atoms: _294  and  _295
REMARK  116  A    between atoms: _300  and  _302
REMARK  117  A    between atoms: _302  and  _303
REMARK  118  A    between atoms: _302  and  _305
REMARK  119  A    between atoms: _305  and  _306
REMARK  120  A    between atoms: _311  and  _313
REMARK  121  A    between atoms: _313  and  _314
REMARK  122  A    between atoms: _313  and  _316
REMARK  123  A    between atoms: _316  and  _317
REMARK  124  A    between atoms: _320  and  _322
REMARK  125  A    between atoms: _322  and  _323
REMARK  126  A    between atoms: _322  and  _325
REMARK  127  A    between atoms: _328  and  _330
REMARK  128  A    between atoms: _330  and  _331
REMARK  129  A    between atoms: _330  and  _333
REMARK  130  A    between atoms: _333  and  _334
REMARK  131  A    between atoms: _337  and  _339
REMARK  132  A    between atoms: _339  and  _340
REMARK  133  A    between atoms: _339  and  _342
REMARK  134  A    between atoms: _342  and  _343
REMARK  135  A    between atoms: _343  and  _344
REMARK  136  A    between atoms: _347  and  _349
REMARK  137  A    between atoms: _349  and  _350
REMARK  138  A    between atoms: _353  and  _355
REMARK  139  A    between atoms: _355  and  _356
REMARK  140  A    between atoms: _355  and  _358
REMARK  141  A    between atoms: _358  and  _359
REMARK  142  A    between atoms: _362  and  _364
REMARK  143  A    between atoms: _364  and  _365
REMARK  144  A    between atoms: _364  and  _367
REMARK  145  A    between atoms: _367  and  _368
REMARK  146  A    between atoms: _368  and  _369
REMARK  147  A    between atoms: _372  and  _374
REMARK  148  A    between atoms: _374  and  _375
REMARK  149  A    between atoms: _374  and  _377
REMARK  150  A    between atoms: _377  and  _378
REMARK  151  A    between atoms: _378  and  _379
REMARK  152  A    between atoms: _379  and  _380
REMARK  153  A    between atoms: _389  and  _391
REMARK  154  A    between atoms: _391  and  _392
REMARK  155  A    between atoms: _391  and  _394
REMARK  156  A    between atoms: _394  and  _395
REMARK  157  A    between atoms: _405  and  _407
REMARK  158  A    between atoms: _407  and  _408
REMARK  159  A    between atoms: _407  and  _410
REMARK  160  A    between atoms: _410  and  _411
REMARK  161  A    between atoms: _416  and  _418
REMARK  162  A    between atoms: _418  and  _419
REMARK  163  A    between atoms: _421  and  _423
REMARK  164  A    between atoms: _423  and  _424
REMARK  165  A    between atoms: _423  and  _426
REMARK  166  A    between atoms: _429  and  _431
REMARK  167  A    between atoms: _431  and  _432
REMARK  168  A    between atoms: _435  and  _437
REMARK  169  A    between atoms: _437  and  _438
REMARK  170  A    between atoms: _437  and  _440
REMARK  171  A    between atoms: _440  and  _441
REMARK  172  A    between atoms: _446  and  _448
REMARK  173  A    between atoms: _448  and  _449
REMARK  174  A    between atoms: _448  and  _451
REMARK  175  A    between atoms: _451  and  _452
REMARK  176  A    between atoms: _452  and  _453
REMARK  177  A    between atoms: _453  and  _454
REMARK  178  A    between atoms: _454  and  _455
REMARK  179  A    between atoms: _459  and  _461
REMARK  180  A    between atoms: _461  and  _462
REMARK  181  A    between atoms: _461  and  _464
REMARK  182  A    between atoms: _464  and  _465
REMARK  183  A    between atoms: _470  and  _472
REMARK  184  A    between atoms: _472  and  _473
REMARK  185  A    between atoms: _475  and  _477
REMARK  186  A    between atoms: _477  and  _478
REMARK  187  A    between atoms: _477  and  _480
REMARK  188  A    between atoms: _480  and  _481
REMARK  189  A    between atoms: _481  and  _482
REMARK  190  A    between atoms: _482  and  _483
REMARK  191  A    between atoms: _483  and  _484
REMARK  192  A    between atoms: _488  and  _490
REMARK  193  A    between atoms: _490  and  _491
REMARK  194  A    between atoms: _490  and  _493
REMARK  195  A    between atoms: _493  and  _494
REMARK  196  A    between atoms: _494  and  _495
REMARK  197  A    between atoms: _495  and  _496
REMARK  198  A    between atoms: _505  and  _507
REMARK  199  A    between atoms: _507  and  _508
REMARK  200  A    between atoms: _507  and  _510
REMARK  201  A    between atoms: _510  and  _511
REMARK  202  A    between atoms: _516  and  _517
REMARK  203  A    between atoms: _519  and  _521
REMARK  204  A    between atoms: _521  and  _522
REMARK  205  A    between atoms: _521  and  _524
REMARK  206  A    between atoms: _524  and  _525
REMARK  207  A    between atoms: _525  and  _526
REMARK  208  A    between atoms: _526  and  _527
REMARK  209  A    between atoms: _527  and  _528
REMARK  210  A    between atoms: _532  and  _534
REMARK  211  A    between atoms: _534  and  _535
REMARK  212  A    between atoms: _534  and  _537
REMARK  213  A    between atoms: _537  and  _538
REMARK  214  A    between atoms: _540  and  _542
REMARK  215  A    between atoms: _542  and  _543
REMARK  216  A    between atoms: _542  and  _545
REMARK  217  A    between atoms: _545  and  _546
REMARK  218  A    between atoms: _549  and  _551
REMARK  219  A    between atoms: _551  and  _552
REMARK  220  A    between atoms: _551  and  _554
REMARK  221  A    between atoms: _554  and  _555
REMARK  222  A    between atoms: _555  and  _556
REMARK  223  A    between atoms: _559  and  _561
REMARK  224  A    between atoms: _561  and  _562
REMARK  225  A    between atoms: _565  and  _567
REMARK  226  A    between atoms: _567  and  _568
REMARK  227  A    between atoms: _567  and  _570
REMARK  228  A    between atoms: _570  and  _571
REMARK  229  A    between atoms: _573  and  _575
REMARK  230  A    between atoms: _575  and  _576
REMARK  231  A    between atoms: _578  and  _580
REMARK  232  A    between atoms: _580  and  _581
REMARK  233  A    between atoms: _580  and  _583
REMARK  234  A    between atoms: _583  and  _584
REMARK  235  A    between atoms: _587  and  _589
REMARK  236  A    between atoms: _589  and  _590
REMARK  237  A    between atoms: _592  and  _594
REMARK  238  A    between atoms: _594  and  _595
REMARK  239  A    between atoms: _594  and  _597
REMARK  240  A    between atoms: _597  and  _598
REMARK  241  A    between atoms: _603  and  _605
REMARK  242  A    between atoms: _605  and  _606
REMARK  243  A    between atoms: _605  and  _608
REMARK  244  A    between atoms: _608  and  _609
REMARK  245  A    between atoms: _609  and  _610
REMARK  246  A    between atoms: _617  and  _618
REMARK  247  A    between atoms: _618  and  _634
REMARK  248  A    between atoms: _619  and  _621
REMARK  249  A    between atoms: _621  and  _622
REMARK  250  A    between atoms: _622  and  _623
REMARK  251  A    between atoms: _627  and  _629
REMARK  252  A    between atoms: _629  and  _630
REMARK  253  A    between atoms: _629  and  _637
REMARK  254  A    between atoms: _630  and  _631
REMARK  255  A    between atoms: _631  and  _632
REMARK  256  A    between atoms: _632  and  _633
REMARK  257  A    between atoms: _633  and  _634
REMARK  258  A    between atoms: _639  and  _641
REMARK  259  A    between atoms: _641  and  _642
REMARK  260  A    between atoms: _641  and  _644
REMARK  261  A    between atoms: _644  and  _645
REMARK  262  A    between atoms: _648  and  _650
REMARK  263  A    between atoms: _650  and  _651
REMARK  264  A    between atoms: _653  and  _655
REMARK  265  A    between atoms: _655  and  _656
REMARK  266  A    between atoms: _659  and  _661
REMARK  267  A    between atoms: _661  and  _662
REMARK  268  A    between atoms: _661  and  _664
REMARK  269  A    between atoms: _664  and  _665
REMARK  270  A    between atoms: _670  and  _671
REMARK                            x       y       z     vdW  Elec       q    Type
REMARK                         _______ _______ _______ _____ _____    ______ ____
ROOT
ATOM      1  C   ASP A   4      34.963  29.535  31.275  0.00  0.00    +0.241 C 
ATOM      2  N   ASN A   5      35.679  28.429  31.066  0.00  0.00    -0.297 N 
ATOM      3  H   ASN A   5      35.437  27.565  31.592  0.00  0.00    +0.150 HD
ATOM      4  O   ASP A   4      35.240  30.622  30.763  0.00  0.00    -0.273 OA
ENDROOT
BRANCH   2   5
ATOM      5  CA  ASN A   5      36.803  28.394  30.112  0.00  0.00    +0.158 C 
BRANCH   5   6
ATOM      6  C   ASN A   5      37.863  29.480  30.349  0.00  0.00    +0.241 C 
ATOM      7  N   PHE A   6      38.232  29.675  31.614  0.00  0.00    -0.297 N 
ATOM      8  H   PHE A   6      37.810  29.082  32.357  0.00  0.00    +0.150 HD
ATOM      9  O   ASN A   5      38.333  30.126  29.403  0.00  0.00    -0.273 OA
BRANCH   7  10
ATOM     10  CA  PHE A   6      39.209  30.693  31.996  0.00  0.00    +0.153 C 
BRANCH  10  11
ATOM     11  C   PHE A   6      39.874  30.317  33.321  0.00  0.00    +0.241 C 
ATOM     12  O   PHE A   6      39.190  29.977  34.290  0.00  0.00    -0.273 OA
ATOM     13  N   PHE A   7      41.205  30.377  33.347  0.00  0.00    -0.297 N 
ATOM     14  H   PHE A   7      41.710  30.689  32.493  0.00  0.00    +0.150 HD
BRANCH  13  15
ATOM     15  CA  PHE A   7      41.982  30.020  34.535  0.00  0.00    +0.153 C 
BRANCH  15  16
ATOM     16  C   PHE A   7      42.316  31.250  35.380  0.00  0.00    +0.241 C 
ATOM     17  N   GLU A   8      41.937  31.188  36.656  0.00  0.00    -0.298 N 
ATOM     18  H   GLU A   8      41.375  30.369  36.964  0.00  0.00    +0.150 HD
ATOM     19  O   PHE A   7      42.888  32.223  34.879  0.00  0.00    -0.273 OA
BRANCH  17  20
ATOM     20  CA  GLU A   8      42.269  32.210  37.643  0.00  0.00    +0.137 C 
BRANCH  20  21
ATOM     21  C   GLU A   8      43.138  31.553  38.717  0.00  0.00    +0.227 C 
ATOM     22  O   GLU A   8      42.692  30.630  39.409  0.00  0.00    -0.286 OA
ENDBRANCH  20  21
BRANCH  20  23
ATOM     23  CB  GLU A   8      40.985  32.794  38.254  0.00  0.00    +0.039 C 
BRANCH  23  24
ATOM     24  CG  GLU A   8      41.145  34.194  38.847  0.00  0.00    +0.116 C 
BRANCH  24  25
ATOM     25  CD  GLU A   8      39.866  34.735  39.492  0.00  0.00    +0.365 C 
ATOM     26  OE2 GLU A   8      39.977  35.548  40.440  0.00  0.00    -0.246 OA
ATOM     27  OE1 GLU A   8      38.752  34.352  39.061  0.00  0.00    -0.246 OA
ENDBRANCH  24  25
ENDBRANCH  23  24
ENDBRANCH  20  23
ENDBRANCH  17  20
ENDBRANCH  15  16
BRANCH  15  28
ATOM     28  CB  PHE A   7      43.262  29.263  34.145  0.00  0.00    +0.055 C 
BRANCH  28  29
ATOM     29  CG  PHE A   7      44.232  29.055  35.290  0.00  0.00    -0.020 A 
ATOM     30  CD2 PHE A   7      43.859  28.329  36.421  0.00  0.00    -0.004 A 
ATOM     31  CE2 PHE A   7      44.753  28.140  37.474  0.00  0.00    -0.000 A 
ATOM     32  CZ  PHE A   7      46.036  28.676  37.400  0.00  0.00    -0.000 A 
ATOM     33  CE1 PHE A   7      46.420  29.405  36.280  0.00  0.00    -0.000 A 
ATOM     34  CD1 PHE A   7      45.516  29.592  35.234  0.00  0.00    -0.004 A 
ENDBRANCH  28  29
ENDBRANCH  15  28
ENDBRANCH  13  15
ENDBRANCH  10  11
BRANCH  10  35
ATOM     35  CB  PHE A   6      38.540  32.072  32.098  0.00  0.00    +0.055 C 
BRANCH  35  36
ATOM     36  CG  PHE A   6      39.495  33.194  32.404  0.00  0.00    -0.020 A 
ATOM     37  CD2 PHE A   6      39.580  33.722  33.690  0.00  0.00    -0.004 A 
ATOM     38  CE2 PHE A   6      40.467  34.766  33.984  0.00  0.00    -0.000 A 
ATOM     39  CZ  PHE A   6      41.275  35.291  32.981  0.00  0.00    -0.000 A 
ATOM     40  CE1 PHE A   6      41.192  34.773  31.684  0.00  0.00    -0.000 A 
ATOM     41  CD1 PHE A   6      40.304  33.730  31.405  0.00  0.00    -0.004 A 
ENDBRANCH  35  36
ENDBRANCH  10  35
ENDBRANCH   7  10
ENDBRANCH   5   6
BRANCH   5  42
ATOM     42  CB  ASN A   5      36.275  28.474  28.667  0.00  0.00    +0.114 C 
BRANCH  42  43
ATOM     43  CG  ASN A   5      35.969  27.115  28.085  0.00  0.00    +0.222 C 
ATOM     44  ND2 ASN A   5      34.697  26.729  28.107  0.00  0.00    -0.329 N 
ATOM     45 HD21 ASN A   5      33.972  27.352  28.517  0.00  0.00    +0.145 HD
ATOM     46 HD22 ASN A   5      34.427  25.805  27.714  0.00  0.00    +0.145 HD
ATOM     47  OD1 ASN A   5      36.866  26.419  27.613  0.00  0.00    -0.275 OA
ENDBRANCH  42  43
ENDBRANCH   5  42
ENDBRANCH   2   5
BRANCH   1  48
ATOM     48  CA  ASP A   4      33.766  29.412  32.208  0.00  0.00    +0.160 C 
BRANCH  48  51
ATOM     49  C   ASN A   3      34.418  30.055  34.467  0.00  0.00    +0.241 C 
ATOM     50  O   ASN A   3      34.689  28.894  34.796  0.00  0.00    -0.273 OA
ATOM     51  N   ASP A   4      33.921  30.383  33.281  0.00  0.00    -0.297 N 
ATOM     52  H   ASP A   4      33.632  31.368  33.113  0.00  0.00    +0.150 HD
BRANCH  49  53
ATOM     53  CA  ASN A   3      34.648  31.215  35.425  0.00  0.00    +0.158 C 
BRANCH  53  55
ATOM     54  C   PRO A   2      32.839  31.628  37.004  0.00  0.00    +0.241 C 
ATOM     55  N   ASN A   3      34.000  31.045  36.725  0.00  0.00    -0.297 N 
ATOM     56  H   ASN A   3      34.458  30.454  37.448  0.00  0.00    +0.150 HD
ATOM     57  O   PRO A   2      32.213  32.298  36.178  0.00  0.00    -0.273 OA
BRANCH  54  63
ATOM     58  C   TYR A   1      33.726  30.001  39.829  0.00  0.00    +0.242 C 
ATOM     59  N   PRO A   2      33.247  31.207  39.478  0.00  0.00    -0.272 N 
ATOM     60  CD  PRO A   2      33.618  32.473  40.140  0.00  0.00    +0.094 C 
ATOM     61  CG  PRO A   2      32.614  33.471  39.602  0.00  0.00    +0.024 C 
ATOM     62  CB  PRO A   2      31.539  32.688  38.887  0.00  0.00    +0.031 C 
ATOM     63  CA  PRO A   2      32.262  31.422  38.416  0.00  0.00    +0.152 C 
ATOM     64  O   TYR A   1      33.509  28.978  39.183  0.00  0.00    -0.273 OA
BRANCH  58  65
ATOM     65  CA  TYR A   1      34.543  29.931  41.120  0.00  0.00    +0.149 C 
BRANCH  65  66
ATOM     66  N   TYR A   1      33.936  28.963  42.036  0.00  0.00    -0.238 NA
ATOM     67  H   TYR A   1      34.468  28.112  42.309  0.00  0.00    +0.142 HD
ENDBRANCH  65  66
BRANCH  65  68
ATOM     68  CB  TYR A   1      36.004  29.588  40.844  0.00  0.00    +0.053 C 
BRANCH  68  69
ATOM     69  CG  TYR A   1      36.924  30.145  41.904  0.00  0.00    -0.020 A 
ATOM     70  CD2 TYR A   1      37.076  29.504  43.133  0.00  0.00    -0.001 A 
ATOM     71  CE2 TYR A   1      37.918  30.025  44.115  0.00  0.00    +0.036 A 
ATOM     72  CZ  TYR A   1      38.596  31.207  43.872  0.00  0.00    +0.134 A 
ATOM     73  CE1 TYR A   1      38.455  31.862  42.664  0.00  0.00    +0.036 A 
ATOM     74  CD1 TYR A   1      37.613  31.331  41.689  0.00  0.00    -0.001 A 
BRANCH  72  75
ATOM     75  OH  TYR A   1      39.430  31.738  44.829  0.00  0.00    -0.506 OA
ATOM     76  HH  TYR A   1      39.423  31.157  45.631  0.00  0.00    +0.292 HD
ENDBRANCH  72  75
ENDBRANCH  68  69
ENDBRANCH  65  68
ENDBRANCH  58  65
ENDBRANCH  54  63
ENDBRANCH  53  55
BRANCH  53  77
ATOM     77  CB  ASN A   3      36.150  31.448  35.596  0.00  0.00    +0.114 C 
BRANCH  77  78
ATOM     78  CG  ASN A   3      36.454  32.627  36.498  0.00  0.00    +0.222 C 
ATOM     79  ND2 ASN A   3      37.355  32.424  37.455  0.00  0.00    -0.329 N 
ATOM     80 HD21 ASN A   3      37.595  33.191  38.115  0.00  0.00    +0.145 HD
ATOM     81 HD22 ASN A   3      37.820  31.498  37.544  0.00  0.00    +0.145 HD
ATOM     82  OD1 ASN A   3      35.873  33.704  36.347  0.00  0.00    -0.275 OA
ENDBRANCH  77  78
ENDBRANCH  53  77
ENDBRANCH  49  53
ENDBRANCH  48  51
BRANCH  48  83
ATOM     83  CB  ASP A   4      32.468  29.679  31.441  0.00  0.00    +0.143 C 
BRANCH  83  84
ATOM     84  CG  ASP A   4      32.147  28.588  30.436  0.00  0.00    +0.367 C 
ATOM     85  OD2 ASP A   4      31.567  27.553  30.837  0.00  0.00    -0.246 OA
ATOM     86  OD1 ASP A   4      32.465  28.771  29.240  0.00  0.00    -0.246 OA
ENDBRANCH  83  84
ENDBRANCH  48  83
ENDBRANCH   1  48
TORSDOF 31
REMARK  Name = ../refined-set-2016/3g2k/3g2k_pocket.pdb
REMARK  270 active torsions:
REMARK  status: ('A' for Active; 'I' for Inactive)
REMARK    1  A    between atoms: _1  and  _3
REMARK    2  A    between atoms: _3  and  _4
REMARK    3  A    between atoms: _3  and  _6
REMARK    4  A    between atoms: _6  and  _7
REMARK    5  A    between atoms: _12  and  _13
REMARK    6  A    between atoms: _15  and  _17
REMARK    7  A    between atoms: _17  and  _18
REMARK    8  A    between atoms: _17  and  _20
REMARK    9  A    between atoms: _20  and  _21
REMARK   10  A    between atoms: _24  and  _26
REMARK   11  A    between atoms: _26  and  _27
REMARK   12  A    between atoms: _26  and  _29
REMARK   13  A    between atoms: _29  and  _30
REMARK   14  A    between atoms: _30  and  _31
REMARK   15  A    between atoms: _34  and  _36
REMARK   16  A    between atoms: _36  and  _37
REMARK   17  A    between atoms: _36  and  _39
REMARK   18  A    between atoms: _39  and  _40
REMARK   19  A    between atoms: _45  and  _47
REMARK   20  A    between atoms: _47  and  _48
REMARK   21  A    between atoms: _50  and  _52
REMARK   22  A    between atoms: _52  and  _53
REMARK   23  A    between atoms: _55  and  _57
REMARK   24  A    between atoms: _57  and  _58
REMARK   25  A    between atoms: _57  and  _60
REMARK   26  A    between atoms: _60  and  _61
REMARK   27  A    between atoms: _64  and  _66
REMARK   28  A    between atoms: _66  and  _67
REMARK   29  A    between atoms: _69  and  _71
REMARK   30  A    between atoms: _71  and  _72
REMARK   31  A    between atoms: _71  and  _74
REMARK   32  A    between atoms: _74  and  _75
REMARK   33  A    between atoms: _75  and  _76
REMARK   34  A    between atoms: _76  and  _77
REMARK   35  A    between atoms: _86  and  _88
REMARK   36  A    between atoms: _88  and  _89
REMARK   37  A    between atoms: _88  and  _91
REMARK   38  A    between atoms: _91  and  _92
REMARK   39  A    between atoms: _95  and  _97
REMARK   40  A    between atoms: _97  and  _98
REMARK   41  A    between atoms: _101  and  _103
REMARK   42  A    between atoms: _103  and  _104
REMARK   43  A    between atoms: _103  and  _106
REMARK   44  A    between atoms: _106  and  _107
REMARK   45  A    between atoms: _113  and  _115
REMARK   46  A    between atoms: _115  and  _116
REMARK   47  A    between atoms: _115  and  _118
REMARK   48  A    between atoms: _118  and  _119
REMARK   49  A    between atoms: _124  and  _125
REMARK   50  A    between atoms: _128  and  _129
REMARK   51  A    between atoms: _134  and  _136
REMARK   52  A    between atoms: _136  and  _137
REMARK   53  A    between atoms: _136  and  _139
REMARK   54  A    between atoms: _139  and  _140
REMARK   55  A    between atoms: _145  and  _147
REMARK   56  A    between atoms: _147  and  _148
REMARK   57  A    between atoms: _147  and  _150
REMARK   58  A    between atoms: _150  and  _151
REMARK   59  A    between atoms: _154  and  _156
REMARK   60  A    between atoms: _156  and  _157
REMARK   61  A    between atoms: _156  and  _159
REMARK   62  A    between atoms: _159  and  _160
REMARK   63  A    between atoms: _165  and  _167
REMARK   64  A    between atoms: _167  and  _168
REMARK   65  A    between atoms: _167  and  _170
REMARK   66  A    between atoms: _170  and  _171
REMARK   67  A    between atoms: _177  and  _179
REMARK   68  A    between atoms: _179  and  _180
REMARK   69  A    between atoms: _179  and  _182
REMARK   70  A    between atoms: _182  and  _183
REMARK   71  A    between atoms: _189  and  _191
REMARK   72  A    between atoms: _191  and  _192
REMARK   73  A    between atoms: _191  and  _194
REMARK   74  A    between atoms: _194  and  _195
REMARK   75  A    between atoms: _195  and  _196
REMARK   76  A    between atoms: _199  and  _201
REMARK   77  A    between atoms: _201  and  _202
REMARK   78  A    between atoms: _201  and  _204
REMARK   79  A    between atoms: _204  and  _205
REMARK   80  A    between atoms: _205  and  _206
REMARK   81  A    between atoms: _206  and  _207
REMARK   82  A    between atoms: _216  and  _218
REMARK   83  A    between atoms: _218  and  _219
REMARK   84  A    between atoms: _218  and  _221
REMARK   85  A    between atoms: _221  and  _222
REMARK   86  A    between atoms: _222  and  _223
REMARK   87  A    between atoms: _226  and  _228
REMARK   88  A    between atoms: _228  and  _229
REMARK   89  A    between atoms: _228  and  _231
REMARK   90  A    between atoms: _231  and  _232
REMARK   91  A    between atoms: _237  and  _239
REMARK   92  A    between atoms: _239  and  _240
REMARK   93  A    between atoms: _239  and  _242
REMARK   94  A    between atoms: _242  and  _243
REMARK   95  A    between atoms: _246  and  _248
REMARK   96  A    between atoms: _248  and  _249
REMARK   97  A    between atoms: _248  and  _251
REMARK   98  A    between atoms: _251  and  _252
REMARK   99  A    between atoms: _255  and  _257
REMARK  100  A    between atoms: _257  and  _258
REMARK  101  A    between atoms: _257  and  _260
REMARK  102  A    between atoms: _260  and  _261
REMARK  103  A    between atoms: _266  and  _268
REMARK  104  A    between atoms: _268  and  _269
REMARK  105  A    between atoms: _268  and  _271
REMARK  106  A    between atoms: _271  and  _272
REMARK  107  A    between atoms: _277  and  _278
REMARK  108  A    between atoms: _280  and  _282
REMARK  109  A    between atoms: _282  and  _283
REMARK  110  A    between atoms: _282  and  _285
REMARK  111  A    between atoms: _285  and  _286
REMARK  112  A    between atoms: _289  and  _291
REMARK  113  A    between atoms: _291  and  _292
REMARK  114  A    between atoms: _291  and  _294
REMARK  115  A    between atoms: _294  and  _295
REMARK  116  A    between atoms: _300  and  _302
REMARK  117  A    between atoms: _302  and  _303
REMARK  118  A    between atoms: _302  and  _305
REMARK  119  A    between atoms: _305  and  _306
REMARK  120  A    between atoms: _311  and  _313
REMARK  121  A    between atoms: _313  and  _314
REMARK  122  A    between atoms: _313  and  _316
REMARK  123  A    between atoms: _316  and  _317
REMARK  124  A    between atoms: _320  and  _322
REMARK  125  A    between atoms: _322  and  _323
REMARK  126  A    between atoms: _322  and  _325
REMARK  127  A    between atoms: _328  and  _330
REMARK  128  A    between atoms: _330  and  _331
REMARK  129  A    between atoms: _330  and  _333
REMARK  130  A    between atoms: _333  and  _334
REMARK  131  A    between atoms: _337  and  _339
REMARK  132  A    between atoms: _339  and  _340
REMARK  133  A    between atoms: _339  and  _342
REMARK  134  A    between atoms: _342  and  _343
REMARK  135  A    between atoms: _343  and  _344
REMARK  136  A    between atoms: _347  and  _349
REMARK  137  A    between atoms: _349  and  _350
REMARK  138  A    between atoms: _353  and  _355
REMARK  139  A    between atoms: _355  and  _356
REMARK  140  A    between atoms: _355  and  _358
REMARK  141  A    between atoms: _358  and  _359
REMARK  142  A    between atoms: _362  and  _364
REMARK  143  A    between atoms: _364  and  _365
REMARK  144  A    between atoms: _364  and  _367
REMARK  145  A    between atoms: _367  and  _368
REMARK  146  A    between atoms: _368  and  _369
REMARK  147  A    between atoms: _372  and  _374
REMARK  148  A    between atoms: _374  and  _375
REMARK  149  A    between atoms: _374  and  _377
REMARK  150  A    between atoms: _377  and  _378
REMARK  151  A    between atoms: _378  and  _379
REMARK  152  A    between atoms: _379  and  _380
REMARK  153  A    between atoms: _389  and  _391
REMARK  154  A    between atoms: _391  and  _392
REMARK  155  A    between atoms: _391  and  _394
REMARK  156  A    between atoms: _394  and  _395
REMARK  157  A    between atoms: _405  and  _407
REMARK  158  A    between atoms: _407  and  _408
REMARK  159  A    between atoms: _407  and  _410
REMARK  160  A    between atoms: _410  and  _411
REMARK  161  A    between atoms: _416  and  _418
REMARK  162  A    between atoms: _418  and  _419
REMARK  163  A    between atoms: _421  and  _423
REMARK  164  A    between atoms: _423  and  _424
REMARK  165  A    between atoms: _423  and  _426
REMARK  166  A    between atoms: _429  and  _431
REMARK  167  A    between atoms: _431  and  _432
REMARK  168  A    between atoms: _435  and  _437
REMARK  169  A    between atoms: _437  and  _438
REMARK  170  A    between atoms: _437  and  _440
REMARK  171  A    between atoms: _440  and  _441
REMARK  172  A    between atoms: _446  and  _448
REMARK  173  A    between atoms: _448  and  _449
REMARK  174  A    between atoms: _448  and  _451
REMARK  175  A    between atoms: _451  and  _452
REMARK  176  A    between atoms: _452  and  _453
REMARK  177  A    between atoms: _453  and  _454
REMARK  178  A    between atoms: _454  and  _455
REMARK  179  A    between atoms: _459  and  _461
REMARK  180  A    between atoms: _461  and  _462
REMARK  181  A    between atoms: _461  and  _464
REMARK  182  A    between atoms: _464  and  _465
REMARK  183  A    between atoms: _470  and  _472
REMARK  184  A    between atoms: _472  and  _473
REMARK  185  A    between atoms: _475  and  _477
REMARK  186  A    between atoms: _477  and  _478
REMARK  187  A    between atoms: _477  and  _480
REMARK  188  A    between atoms: _480  and  _481
REMARK  189  A    between atoms: _481  and  _482
REMARK  190  A    between atoms: _482  and  _483
REMARK  191  A    between atoms: _483  and  _484
REMARK  192  A    between atoms: _488  and  _490
REMARK  193  A    between atoms: _490  and  _491
REMARK  194  A    between atoms: _490  and  _493
REMARK  195  A    between atoms: _493  and  _494
REMARK  196  A    between atoms: _494  and  _495
REMARK  197  A    between atoms: _495  and  _496
REMARK  198  A    between atoms: _505  and  _507
REMARK  199  A    between atoms: _507  and  _508
REMARK  200  A    between atoms: _507  and  _510
REMARK  201  A    between atoms: _510  and  _511
REMARK  202  A    between atoms: _516  and  _517
REMARK  203  A    between atoms: _519  and  _521
REMARK  204  A    between atoms: _521  and  _522
REMARK  205  A    between atoms: _521  and  _524
REMARK  206  A    between atoms: _524  and  _525
REMARK  207  A    between atoms: _525  and  _526
REMARK  208  A    between atoms: _526  and  _527
REMARK  209  A    between atoms: _527  and  _528
REMARK  210  A    between atoms: _532  and  _534
REMARK  211  A    between atoms: _534  and  _535
REMARK  212  A    between atoms: _534  and  _537
REMARK  213  A    between atoms: _537  and  _538
REMARK  214  A    between atoms: _540  and  _542
REMARK  215  A    between atoms: _542  and  _543
REMARK  216  A    between atoms: _542  and  _545
REMARK  217  A    between atoms: _545  and  _546
REMARK  218  A    between atoms: _549  and  _551
REMARK  219  A    between atoms: _551  and  _552
REMARK  220  A    between atoms: _551  and  _554
REMARK  221  A    between atoms: _554  and  _555
REMARK  222  A    between atoms: _555  and  _556
REMARK  223  A    between atoms: _559  and  _561
REMARK  224  A    between atoms: _561  and  _562
REMARK  225  A    between atoms: _565  and  _567
REMARK  226  A    between atoms: _567  and  _568
REMARK  227  A    between atoms: _567  and  _570
REMARK  228  A    between atoms: _570  and  _571
REMARK  229  A    between atoms: _573  and  _575
REMARK  230  A    between atoms: _575  and  _576
REMARK  231  A    between atoms: _578  and  _580
REMARK  232  A    between atoms: _580  and  _581
REMARK  233  A    between atoms: _580  and  _583
REMARK  234  A    between atoms: _583  and  _584
REMARK  235  A    between atoms: _587  and  _589
REMARK  236  A    between atoms: _589  and  _590
REMARK  237  A    between atoms: _592  and  _594
REMARK  238  A    between atoms: _594  and  _595
REMARK  239  A    between atoms: _594  and  _597
REMARK  240  A    between atoms: _597  and  _598
REMARK  241  A    between atoms: _603  and  _605
REMARK  242  A    between atoms: _605  and  _606
REMARK  243  A    between atoms: _605  and  _608
REMARK  244  A    between atoms: _608  and  _609
REMARK  245  A    between atoms: _609  and  _610
REMARK  246  A    between atoms: _617  and  _618
REMARK  247  A    between atoms: _618  and  _634
REMARK  248  A    between atoms: _619  and  _621
REMARK  249  A    between atoms: _621  and  _622
REMARK  250  A    between atoms: _622  and  _623
REMARK  251  A    between atoms: _627  and  _629
REMARK  252  A    between atoms: _629  and  _630
REMARK  253  A    between atoms: _629  and  _637
REMARK  254  A    between atoms: _630  and  _631
REMARK  255  A    between atoms: _631  and  _632
REMARK  256  A    between atoms: _632  and  _633
REMARK  257  A    between atoms: _633  and  _634
REMARK  258  A    between atoms: _639  and  _641
REMARK  259  A    between atoms: _641  and  _642
REMARK  260  A    between atoms: _641  and  _644
REMARK  261  A    between atoms: _644  and  _645
REMARK  262  A    between atoms: _648  and  _650
REMARK  263  A    between atoms: _650  and  _651
REMARK  264  A    between atoms: _653  and  _655
REMARK  265  A    between atoms: _655  and  _656
REMARK  266  A    between atoms: _659  and  _661
REMARK  267  A    between atoms: _661  and  _662
REMARK  268  A    between atoms: _661  and  _664
REMARK  269  A    between atoms: _664  and  _665
REMARK  270  A    between atoms: _670  and  _671
REMARK                            x       y       z     vdW  Elec       q    Type
REMARK                         _______ _______ _______ _____ _____    ______ ____
ROOT
ATOM      1  NE  ARG A   1      39.467  25.912  40.300  0.00  0.00    -0.265 N 
ATOM      2  HE  ARG A   1      40.347  25.708  39.784  0.00  0.00    +0.259 HD
ATOM      3  CZ  ARG A   1      38.327  25.484  39.761  0.00  0.00    +0.342 C 
ATOM      4  NH2 ARG A   1      37.162  25.707  40.364  0.00  0.00    -0.292 N 
ATOM      5 HH21 ARG A   1      37.134  26.221  41.268  0.00  0.00    +0.255 HD
ATOM      6 HH22 ARG A   1      36.279  25.367  39.932  0.00  0.00    +0.255 HD
ATOM      7  NH1 ARG A   1      38.354  24.836  38.600  0.00  0.00    -0.292 N 
ATOM      8 HH11 ARG A   1      37.468  24.498  38.172  0.00  0.00    +0.255 HD
ATOM      9 HH12 ARG A   1      39.261  24.667  38.120  0.00  0.00    +0.255 HD
ENDROOT
BRANCH   1  10
ATOM     10  CD  ARG A   1      39.581  26.646  41.561  0.00  0.00    +0.174 C 
BRANCH  10  11
ATOM     11  CG  ARG A   1      40.950  27.337  41.658  0.00  0.00    +0.045 C 
BRANCH  11  12
ATOM     12  CB  ARG A   1      41.045  28.337  42.814  0.00  0.00    +0.029 C 
BRANCH  12  13
ATOM     13  CA  ARG A   1      40.996  27.723  44.216  0.00  0.00    +0.133 C 
BRANCH  13  14
ATOM     14  N   ARG A   1      41.292  28.735  45.233  0.00  0.00    -0.239 NA
ATOM     15  H   ARG A   1      41.614  29.677  44.932  0.00  0.00    +0.142 HD
ENDBRANCH  13  14
BRANCH  13  16
ATOM     16  C   ARG A   1      41.929  26.512  44.318  0.00  0.00    +0.224 C 
ATOM     17  O   ARG A   1      41.486  25.369  44.197  0.00  0.00    -0.287 OA
ENDBRANCH  13  16
ENDBRANCH  12  13
ENDBRANCH  11  12
ENDBRANCH  10  11
ENDBRANCH   1  10
TORSDOF 6
REMARK  Name = ../refined-set-2016/3g2k/3g2k_pocket.pdb
REMARK  270 active torsions:
REMARK  status: ('A' for Active; 'I' for Inactive)
REMARK    1  A    between atoms: _1  and  _3
REMARK    2  A    between atoms: _3  and  _4
REMARK    3  A    between atoms: _3  and  _6
REMARK    4  A    between atoms: _6  and  _7
REMARK    5  A    between atoms: _12  and  _13
REMARK    6  A    between atoms: _15  and  _17
REMARK    7  A    between atoms: _17  and  _18
REMARK    8  A    between atoms: _17  and  _20
REMARK    9  A    between atoms: _20  and  _21
REMARK   10  A    between atoms: _24  and  _26
REMARK   11  A    between atoms: _26  and  _27
REMARK   12  A    between atoms: _26  and  _29
REMARK   13  A    between atoms: _29  and  _30
REMARK   14  A    between atoms: _30  and  _31
REMARK   15  A    between atoms: _34  and  _36
REMARK   16  A    between atoms: _36  and  _37
REMARK   17  A    between atoms: _36  and  _39
REMARK   18  A    between atoms: _39  and  _40
REMARK   19  A    between atoms: _45  and  _47
REMARK   20  A    between atoms: _47  and  _48
REMARK   21  A    between atoms: _50  and  _52
REMARK   22  A    between atoms: _52  and  _53
REMARK   23  A    between atoms: _55  and  _57
REMARK   24  A    between atoms: _57  and  _58
REMARK   25  A    between atoms: _57  and  _60
REMARK   26  A    between atoms: _60  and  _61
REMARK   27  A    between atoms: _64  and  _66
REMARK   28  A    between atoms: _66  and  _67
REMARK   29  A    between atoms: _69  and  _71
REMARK   30  A    between atoms: _71  and  _72
REMARK   31  A    between atoms: _71  and  _74
REMARK   32  A    between atoms: _74  and  _75
REMARK   33  A    between atoms: _75  and  _76
REMARK   34  A    between atoms: _76  and  _77
REMARK   35  A    between atoms: _86  and  _88
REMARK   36  A    between atoms: _88  and  _89
REMARK   37  A    between atoms: _88  and  _91
REMARK   38  A    between atoms: _91  and  _92
REMARK   39  A    between atoms: _95  and  _97
REMARK   40  A    between atoms: _97  and  _98
REMARK   41  A    between atoms: _101  and  _103
REMARK   42  A    between atoms: _103  and  _104
REMARK   43  A    between atoms: _103  and  _106
REMARK   44  A    between atoms: _106  and  _107
REMARK   45  A    between atoms: _113  and  _115
REMARK   46  A    between atoms: _115  and  _116
REMARK   47  A    between atoms: _115  and  _118
REMARK   48  A    between atoms: _118  and  _119
REMARK   49  A    between atoms: _124  and  _125
REMARK   50  A    between atoms: _128  and  _129
REMARK   51  A    between atoms: _134  and  _136
REMARK   52  A    between atoms: _136  and  _137
REMARK   53  A    between atoms: _136  and  _139
REMARK   54  A    between atoms: _139  and  _140
REMARK   55  A    between atoms: _145  and  _147
REMARK   56  A    between atoms: _147  and  _148
REMARK   57  A    between atoms: _147  and  _150
REMARK   58  A    between atoms: _150  and  _151
REMARK   59  A    between atoms: _154  and  _156
REMARK   60  A    between atoms: _156  and  _157
REMARK   61  A    between atoms: _156  and  _159
REMARK   62  A    between atoms: _159  and  _160
REMARK   63  A    between atoms: _165  and  _167
REMARK   64  A    between atoms: _167  and  _168
REMARK   65  A    between atoms: _167  and  _170
REMARK   66  A    between atoms: _170  and  _171
REMARK   67  A    between atoms: _177  and  _179
REMARK   68  A    between atoms: _179  and  _180
REMARK   69  A    between atoms: _179  and  _182
REMARK   70  A    between atoms: _182  and  _183
REMARK   71  A    between atoms: _189  and  _191
REMARK   72  A    between atoms: _191  and  _192
REMARK   73  A    between atoms: _191  and  _194
REMARK   74  A    between atoms: _194  and  _195
REMARK   75  A    between atoms: _195  and  _196
REMARK   76  A    between atoms: _199  and  _201
REMARK   77  A    between atoms: _201  and  _202
REMARK   78  A    between atoms: _201  and  _204
REMARK   79  A    between atoms: _204  and  _205
REMARK   80  A    between atoms: _205  and  _206
REMARK   81  A    between atoms: _206  and  _207
REMARK   82  A    between atoms: _216  and  _218
REMARK   83  A    between atoms: _218  and  _219
REMARK   84  A    between atoms: _218  and  _221
REMARK   85  A    between atoms: _221  and  _222
REMARK   86  A    between atoms: _222  and  _223
REMARK   87  A    between atoms: _226  and  _228
REMARK   88  A    between atoms: _228  and  _229
REMARK   89  A    between atoms: _228  and  _231
REMARK   90  A    between atoms: _231  and  _232
REMARK   91  A    between atoms: _237  and  _239
REMARK   92  A    between atoms: _239  and  _240
REMARK   93  A    between atoms: _239  and  _242
REMARK   94  A    between atoms: _242  and  _243
REMARK   95  A    between atoms: _246  and  _248
REMARK   96  A    between atoms: _248  and  _249
REMARK   97  A    between atoms: _248  and  _251
REMARK   98  A    between atoms: _251  and  _252
REMARK   99  A    between atoms: _255  and  _257
REMARK  100  A    between atoms: _257  and  _258
REMARK  101  A    between atoms: _257  and  _260
REMARK  102  A    between atoms: _260  and  _261
REMARK  103  A    between atoms: _266  and  _268
REMARK  104  A    between atoms: _268  and  _269
REMARK  105  A    between atoms: _268  and  _271
REMARK  106  A    between atoms: _271  and  _272
REMARK  107  A    between atoms: _277  and  _278
REMARK  108  A    between atoms: _280  and  _282
REMARK  109  A    between atoms: _282  and  _283
REMARK  110  A    between atoms: _282  and  _285
REMARK  111  A    between atoms: _285  and  _286
REMARK  112  A    between atoms: _289  and  _291
REMARK  113  A    between atoms: _291  and  _292
REMARK  114  A    between atoms: _291  and  _294
REMARK  115  A    between atoms: _294  and  _295
REMARK  116  A    between atoms: _300  and  _302
REMARK  117  A    between atoms: _302  and  _303
REMARK  118  A    between atoms: _302  and  _305
REMARK  119  A    between atoms: _305  and  _306
REMARK  120  A    between atoms: _311  and  _313
REMARK  121  A    between atoms: _313  and  _314
REMARK  122  A    between atoms: _313  and  _316
REMARK  123  A    between atoms: _316  and  _317
REMARK  124  A    between atoms: _320  and  _322
REMARK  125  A    between atoms: _322  and  _323
REMARK  126  A    between atoms: _322  and  _325
REMARK  127  A    between atoms: _328  and  _330
REMARK  128  A    between atoms: _330  and  _331
REMARK  129  A    between atoms: _330  and  _333
REMARK  130  A    between atoms: _333  and  _334
REMARK  131  A    between atoms: _337  and  _339
REMARK  132  A    between atoms: _339  and  _340
REMARK  133  A    between atoms: _339  and  _342
REMARK  134  A    between atoms: _342  and  _343
REMARK  135  A    between atoms: _343  and  _344
REMARK  136  A    between atoms: _347  and  _349
REMARK  137  A    between atoms: _349  and  _350
REMARK  138  A    between atoms: _353  and  _355
REMARK  139  A    between atoms: _355  and  _356
REMARK  140  A    between atoms: _355  and  _358
REMARK  141  A    between atoms: _358  and  _359
REMARK  142  A    between atoms: _362  and  _364
REMARK  143  A    between atoms: _364  and  _365
REMARK  144  A    between atoms: _364  and  _367
REMARK  145  A    between atoms: _367  and  _368
REMARK  146  A    between atoms: _368  and  _369
REMARK  147  A    between atoms: _372  and  _374
REMARK  148  A    between atoms: _374  and  _375
REMARK  149  A    between atoms: _374  and  _377
REMARK  150  A    between atoms: _377  and  _378
REMARK  151  A    between atoms: _378  and  _379
REMARK  152  A    between atoms: _379  and  _380
REMARK  153  A    between atoms: _389  and  _391
REMARK  154  A    between atoms: _391  and  _392
REMARK  155  A    between atoms: _391  and  _394
REMARK  156  A    between atoms: _394  and  _395
REMARK  157  A    between atoms: _405  and  _407
REMARK  158  A    between atoms: _407  and  _408
REMARK  159  A    between atoms: _407  and  _410
REMARK  160  A    between atoms: _410  and  _411
REMARK  161  A    between atoms: _416  and  _418
REMARK  162  A    between atoms: _418  and  _419
REMARK  163  A    between atoms: _421  and  _423
REMARK  164  A    between atoms: _423  and  _424
REMARK  165  A    between atoms: _423  and  _426
REMARK  166  A    between atoms: _429  and  _431
REMARK  167  A    between atoms: _431  and  _432
REMARK  168  A    between atoms: _435  and  _437
REMARK  169  A    between atoms: _437  and  _438
REMARK  170  A    between atoms: _437  and  _440
REMARK  171  A    between atoms: _440  and  _441
REMARK  172  A    between atoms: _446  and  _448
REMARK  173  A    between atoms: _448  and  _449
REMARK  174  A    between atoms: _448  and  _451
REMARK  175  A    between atoms: _451  and  _452
REMARK  176  A    between atoms: _452  and  _453
REMARK  177  A    between atoms: _453  and  _454
REMARK  178  A    between atoms: _454  and  _455
REMARK  179  A    between atoms: _459  and  _461
REMARK  180  A    between atoms: _461  and  _462
REMARK  181  A    between atoms: _461  and  _464
REMARK  182  A    between atoms: _464  and  _465
REMARK  183  A    between atoms: _470  and  _472
REMARK  184  A    between atoms: _472  and  _473
REMARK  185  A    between atoms: _475  and  _477
REMARK  186  A    between atoms: _477  and  _478
REMARK  187  A    between atoms: _477  and  _480
REMARK  188  A    between atoms: _480  and  _481
REMARK  189  A    between atoms: _481  and  _482
REMARK  190  A    between atoms: _482  and  _483
REMARK  191  A    between atoms: _483  and  _484
REMARK  192  A    between atoms: _488  and  _490
REMARK  193  A    between atoms: _490  and  _491
REMARK  194  A    between atoms: _490  and  _493
REMARK  195  A    between atoms: _493  and  _494
REMARK  196  A    between atoms: _494  and  _495
REMARK  197  A    between atoms: _495  and  _496
REMARK  198  A    between atoms: _505  and  _507
REMARK  199  A    between atoms: _507  and  _508
REMARK  200  A    between atoms: _507  and  _510
REMARK  201  A    between atoms: _510  and  _511
REMARK  202  A    between atoms: _516  and  _517
REMARK  203  A    between atoms: _519  and  _521
REMARK  204  A    between atoms: _521  and  _522
REMARK  205  A    between atoms: _521  and  _524
REMARK  206  A    between atoms: _524  and  _525
REMARK  207  A    between atoms: _525  and  _526
REMARK  208  A    between atoms: _526  and  _527
REMARK  209  A    between atoms: _527  and  _528
REMARK  210  A    between atoms: _532  and  _534
REMARK  211  A    between atoms: _534  and  _535
REMARK  212  A    between atoms: _534  and  _537
REMARK  213  A    between atoms: _537  and  _538
REMARK  214  A    between atoms: _540  and  _542
REMARK  215  A    between atoms: _542  and  _543
REMARK  216  A    between atoms: _542  and  _545
REMARK  217  A    between atoms: _545  and  _546
REMARK  218  A    between atoms: _549  and  _551
REMARK  219  A    between atoms: _551  and  _552
REMARK  220  A    between atoms: _551  and  _554
REMARK  221  A    between atoms: _554  and  _555
REMARK  222  A    between atoms: _555  and  _556
REMARK  223  A    between atoms: _559  and  _561
REMARK  224  A    between atoms: _561  and  _562
REMARK  225  A    between atoms: _565  and  _567
REMARK  226  A    between atoms: _567  and  _568
REMARK  227  A    between atoms: _567  and  _570
REMARK  228  A    between atoms: _570  and  _571
REMARK  229  A    between atoms: _573  and  _575
REMARK  230  A    between atoms: _575  and  _576
REMARK  231  A    between atoms: _578  and  _580
REMARK  232  A    between atoms: _580  and  _581
REMARK  233  A    between atoms: _580  and  _583
REMARK  234  A    between atoms: _583  and  _584
REMARK  235  A    between atoms: _587  and  _589
REMARK  236  A    between atoms: _589  and  _590
REMARK  237  A    between atoms: _592  and  _594
REMARK  238  A    between atoms: _594  and  _595
REMARK  239  A    between atoms: _594  and  _597
REMARK  240  A    between atoms: _597  and  _598
REMARK  241  A    between atoms: _603  and  _605
REMARK  242  A    between atoms: _605  and  _606
REMARK  243  A    between atoms: _605  and  _608
REMARK  244  A    between atoms: _608  and  _609
REMARK  245  A    between atoms: _609  and  _610
REMARK  246  A    between atoms: _617  and  _618
REMARK  247  A    between atoms: _618  and  _634
REMARK  248  A    between atoms: _619  and  _621
REMARK  249  A    between atoms: _621  and  _622
REMARK  250  A    between atoms: _622  and  _623
REMARK  251  A    between atoms: _627  and  _629
REMARK  252  A    between atoms: _629  and  _630
REMARK  253  A    between atoms: _629  and  _637
REMARK  254  A    between atoms: _630  and  _631
REMARK  255  A    between atoms: _631  and  _632
REMARK  256  A    between atoms: _632  and  _633
REMARK  257  A    between atoms: _633  and  _634
REMARK  258  A    between atoms: _639  and  _641
REMARK  259  A    between atoms: _641  and  _642
REMARK  260  A    between atoms: _641  and  _644
REMARK  261  A    between atoms: _644  and  _645
REMARK  262  A    between atoms: _648  and  _650
REMARK  263  A    between atoms: _650  and  _651
REMARK  264  A    between atoms: _653  and  _655
REMARK  265  A    between atoms: _655  and  _656
REMARK  266  A    between atoms: _659  and  _661
REMARK  267  A    between atoms: _661  and  _662
REMARK  268  A    between atoms: _661  and  _664
REMARK  269  A    between atoms: _664  and  _665
REMARK  270  A    between atoms: _670  and  _671
REMARK                            x       y       z     vdW  Elec       q    Type
REMARK                         _______ _______ _______ _____ _____    ______ ____
ROOT
ATOM      1  CA  GLU A   1      41.458  21.422  44.213  0.00  0.00    +0.134 C 
ENDROOT
BRANCH   1   2
ATOM      2  N   GLU A   1      40.992  22.520  45.052  0.00  0.00    -0.239 NA
ATOM      3  H   GLU A   1      41.415  23.462  44.929  0.00  0.00    +0.142 HD
ENDBRANCH   1   2
BRANCH   1   4
ATOM      4  C   GLU A   1      42.136  20.329  45.030  0.00  0.00    +0.224 C 
ATOM      5  O   GLU A   1      41.883  19.146  44.816  0.00  0.00    -0.287 OA
ENDBRANCH   1   4
BRANCH   1   6
ATOM      6  CB  GLU A   1      42.361  21.934  43.084  0.00  0.00    +0.037 C 
BRANCH   6   7
ATOM      7  CG  GLU A   1      41.609  22.767  42.036  0.00  0.00    +0.116 C 
BRANCH   7   8
ATOM      8  CD  GLU A   1      42.481  23.240  40.884  0.00  0.00    +0.365 C 
ATOM      9  OE2 GLU A   1      43.726  23.154  40.986  0.00  0.00    -0.246 OA
ATOM     10  OE1 GLU A   1      41.913  23.709  39.870  0.00  0.00    -0.246 OA
ENDBRANCH   7   8
ENDBRANCH   6   7
ENDBRANCH   1   6
TORSDOF 5
REMARK  Name = ../refined-set-2016/3g2k/3g2k_pocket.pdb
REMARK  270 active torsions:
REMARK  status: ('A' for Active; 'I' for Inactive)
REMARK    1  A    between atoms: _1  and  _3
REMARK    2  A    between atoms: _3  and  _4
REMARK    3  A    between atoms: _3  and  _6
REMARK    4  A    between atoms: _6  and  _7
REMARK    5  A    between atoms: _12  and  _13
REMARK    6  A    between atoms: _15  and  _17
REMARK    7  A    between atoms: _17  and  _18
REMARK    8  A    between atoms: _17  and  _20
REMARK    9  A    between atoms: _20  and  _21
REMARK   10  A    between atoms: _24  and  _26
REMARK   11  A    between atoms: _26  and  _27
REMARK   12  A    between atoms: _26  and  _29
REMARK   13  A    between atoms: _29  and  _30
REMARK   14  A    between atoms: _30  and  _31
REMARK   15  A    between atoms: _34  and  _36
REMARK   16  A    between atoms: _36  and  _37
REMARK   17  A    between atoms: _36  and  _39
REMARK   18  A    between atoms: _39  and  _40
REMARK   19  A    between atoms: _45  and  _47
REMARK   20  A    between atoms: _47  and  _48
REMARK   21  A    between atoms: _50  and  _52
REMARK   22  A    between atoms: _52  and  _53
REMARK   23  A    between atoms: _55  and  _57
REMARK   24  A    between atoms: _57  and  _58
REMARK   25  A    between atoms: _57  and  _60
REMARK   26  A    between atoms: _60  and  _61
REMARK   27  A    between atoms: _64  and  _66
REMARK   28  A    between atoms: _66  and  _67
REMARK   29  A    between atoms: _69  and  _71
REMARK   30  A    between atoms: _71  and  _72
REMARK   31  A    between atoms: _71  and  _74
REMARK   32  A    between atoms: _74  and  _75
REMARK   33  A    between atoms: _75  and  _76
REMARK   34  A    between atoms: _76  and  _77
REMARK   35  A    between atoms: _86  and  _88
REMARK   36  A    between atoms: _88  and  _89
REMARK   37  A    between atoms: _88  and  _91
REMARK   38  A    between atoms: _91  and  _92
REMARK   39  A    between atoms: _95  and  _97
REMARK   40  A    between atoms: _97  and  _98
REMARK   41  A    between atoms: _101  and  _103
REMARK   42  A    between atoms: _103  and  _104
REMARK   43  A    between atoms: _103  and  _106
REMARK   44  A    between atoms: _106  and  _107
REMARK   45  A    between atoms: _113  and  _115
REMARK   46  A    between atoms: _115  and  _116
REMARK   47  A    between atoms: _115  and  _118
REMARK   48  A    between atoms: _118  and  _119
REMARK   49  A    between atoms: _124  and  _125
REMARK   50  A    between atoms: _128  and  _129
REMARK   51  A    between atoms: _134  and  _136
REMARK   52  A    between atoms: _136  and  _137
REMARK   53  A    between atoms: _136  and  _139
REMARK   54  A    between atoms: _139  and  _140
REMARK   55  A    between atoms: _145  and  _147
REMARK   56  A    between atoms: _147  and  _148
REMARK   57  A    between atoms: _147  and  _150
REMARK   58  A    between atoms: _150  and  _151
REMARK   59  A    between atoms: _154  and  _156
REMARK   60  A    between atoms: _156  and  _157
REMARK   61  A    between atoms: _156  and  _159
REMARK   62  A    between atoms: _159  and  _160
REMARK   63  A    between atoms: _165  and  _167
REMARK   64  A    between atoms: _167  and  _168
REMARK   65  A    between atoms: _167  and  _170
REMARK   66  A    between atoms: _170  and  _171
REMARK   67  A    between atoms: _177  and  _179
REMARK   68  A    between atoms: _179  and  _180
REMARK   69  A    between atoms: _179  and  _182
REMARK   70  A    between atoms: _182  and  _183
REMARK   71  A    between atoms: _189  and  _191
REMARK   72  A    between atoms: _191  and  _192
REMARK   73  A    between atoms: _191  and  _194
REMARK   74  A    between atoms: _194  and  _195
REMARK   75  A    between atoms: _195  and  _196
REMARK   76  A    between atoms: _199  and  _201
REMARK   77  A    between atoms: _201  and  _202
REMARK   78  A    between atoms: _201  and  _204
REMARK   79  A    between atoms: _204  and  _205
REMARK   80  A    between atoms: _205  and  _206
REMARK   81  A    between atoms: _206  and  _207
REMARK   82  A    between atoms: _216  and  _218
REMARK   83  A    between atoms: _218  and  _219
REMARK   84  A    between atoms: _218  and  _221
REMARK   85  A    between atoms: _221  and  _222
REMARK   86  A    between atoms: _222  and  _223
REMARK   87  A    between atoms: _226  and  _228
REMARK   88  A    between atoms: _228  and  _229
REMARK   89  A    between atoms: _228  and  _231
REMARK   90  A    between atoms: _231  and  _232
REMARK   91  A    between atoms: _237  and  _239
REMARK   92  A    between atoms: _239  and  _240
REMARK   93  A    between atoms: _239  and  _242
REMARK   94  A    between atoms: _242  and  _243
REMARK   95  A    between atoms: _246  and  _248
REMARK   96  A    between atoms: _248  and  _249
REMARK   97  A    between atoms: _248  and  _251
REMARK   98  A    between atoms: _251  and  _252
REMARK   99  A    between atoms: _255  and  _257
REMARK  100  A    between atoms: _257  and  _258
REMARK  101  A    between atoms: _257  and  _260
REMARK  102  A    between atoms: _260  and  _261
REMARK  103  A    between atoms: _266  and  _268
REMARK  104  A    between atoms: _268  and  _269
REMARK  105  A    between atoms: _268  and  _271
REMARK  106  A    between atoms: _271  and  _272
REMARK  107  A    between atoms: _277  and  _278
REMARK  108  A    between atoms: _280  and  _282
REMARK  109  A    between atoms: _282  and  _283
REMARK  110  A    between atoms: _282  and  _285
REMARK  111  A    between atoms: _285  and  _286
REMARK  112  A    between atoms: _289  and  _291
REMARK  113  A    between atoms: _291  and  _292
REMARK  114  A    between atoms: _291  and  _294
REMARK  115  A    between atoms: _294  and  _295
REMARK  116  A    between atoms: _300  and  _302
REMARK  117  A    between atoms: _302  and  _303
REMARK  118  A    between atoms: _302  and  _305
REMARK  119  A    between atoms: _305  and  _306
REMARK  120  A    between atoms: _311  and  _313
REMARK  121  A    between atoms: _313  and  _314
REMARK  122  A    between atoms: _313  and  _316
REMARK  123  A    between atoms: _316  and  _317
REMARK  124  A    between atoms: _320  and  _322
REMARK  125  A    between atoms: _322  and  _323
REMARK  126  A    between atoms: _322  and  _325
REMARK  127  A    between atoms: _328  and  _330
REMARK  128  A    between atoms: _330  and  _331
REMARK  129  A    between atoms: _330  and  _333
REMARK  130  A    between atoms: _333  and  _334
REMARK  131  A    between atoms: _337  and  _339
REMARK  132  A    between atoms: _339  and  _340
REMARK  133  A    between atoms: _339  and  _342
REMARK  134  A    between atoms: _342  and  _343
REMARK  135  A    between atoms: _343  and  _344
REMARK  136  A    between atoms: _347  and  _349
REMARK  137  A    between atoms: _349  and  _350
REMARK  138  A    between atoms: _353  and  _355
REMARK  139  A    between atoms: _355  and  _356
REMARK  140  A    between atoms: _355  and  _358
REMARK  141  A    between atoms: _358  and  _359
REMARK  142  A    between atoms: _362  and  _364
REMARK  143  A    between atoms: _364  and  _365
REMARK  144  A    between atoms: _364  and  _367
REMARK  145  A    between atoms: _367  and  _368
REMARK  146  A    between atoms: _368  and  _369
REMARK  147  A    between atoms: _372  and  _374
REMARK  148  A    between atoms: _374  and  _375
REMARK  149  A    between atoms: _374  and  _377
REMARK  150  A    between atoms: _377  and  _378
REMARK  151  A    between atoms: _378  and  _379
REMARK  152  A    between atoms: _379  and  _380
REMARK  153  A    between atoms: _389  and  _391
REMARK  154  A    between atoms: _391  and  _392
REMARK  155  A    between atoms: _391  and  _394
REMARK  156  A    between atoms: _394  and  _395
REMARK  157  A    between atoms: _405  and  _407
REMARK  158  A    between atoms: _407  and  _408
REMARK  159  A    between atoms: _407  and  _410
REMARK  160  A    between atoms: _410  and  _411
REMARK  161  A    between atoms: _416  and  _418
REMARK  162  A    between atoms: _418  and  _419
REMARK  163  A    between atoms: _421  and  _423
REMARK  164  A    between atoms: _423  and  _424
REMARK  165  A    between atoms: _423  and  _426
REMARK  166  A    between atoms: _429  and  _431
REMARK  167  A    between atoms: _431  and  _432
REMARK  168  A    between atoms: _435  and  _437
REMARK  169  A    between atoms: _437  and  _438
REMARK  170  A    between atoms: _437  and  _440
REMARK  171  A    between atoms: _440  and  _441
REMARK  172  A    between atoms: _446  and  _448
REMARK  173  A    between atoms: _448  and  _449
REMARK  174  A    between atoms: _448  and  _451
REMARK  175  A    between atoms: _451  and  _452
REMARK  176  A    between atoms: _452  and  _453
REMARK  177  A    between atoms: _453  and  _454
REMARK  178  A    between atoms: _454  and  _455
REMARK  179  A    between atoms: _459  and  _461
REMARK  180  A    between atoms: _461  and  _462
REMARK  181  A    between atoms: _461  and  _464
REMARK  182  A    between atoms: _464  and  _465
REMARK  183  A    between atoms: _470  and  _472
REMARK  184  A    between atoms: _472  and  _473
REMARK  185  A    between atoms: _475  and  _477
REMARK  186  A    between atoms: _477  and  _478
REMARK  187  A    between atoms: _477  and  _480
REMARK  188  A    between atoms: _480  and  _481
REMARK  189  A    between atoms: _481  and  _482
REMARK  190  A    between atoms: _482  and  _483
REMARK  191  A    between atoms: _483  and  _484
REMARK  192  A    between atoms: _488  and  _490
REMARK  193  A    between atoms: _490  and  _491
REMARK  194  A    between atoms: _490  and  _493
REMARK  195  A    between atoms: _493  and  _494
REMARK  196  A    between atoms: _494  and  _495
REMARK  197  A    between atoms: _495  and  _496
REMARK  198  A    between atoms: _505  and  _507
REMARK  199  A    between atoms: _507  and  _508
REMARK  200  A    between atoms: _507  and  _510
REMARK  201  A    between atoms: _510  and  _511
REMARK  202  A    between atoms: _516  and  _517
REMARK  203  A    between atoms: _519  and  _521
REMARK  204  A    between atoms: _521  and  _522
REMARK  205  A    between atoms: _521  and  _524
REMARK  206  A    between atoms: _524  and  _525
REMARK  207  A    between atoms: _525  and  _526
REMARK  208  A    between atoms: _526  and  _527
REMARK  209  A    between atoms: _527  and  _528
REMARK  210  A    between atoms: _532  and  _534
REMARK  211  A    between atoms: _534  and  _535
REMARK  212  A    between atoms: _534  and  _537
REMARK  213  A    between atoms: _537  and  _538
REMARK  214  A    between atoms: _540  and  _542
REMARK  215  A    between atoms: _542  and  _543
REMARK  216  A    between atoms: _542  and  _545
REMARK  217  A    between atoms: _545  and  _546
REMARK  218  A    between atoms: _549  and  _551
REMARK  219  A    between atoms: _551  and  _552
REMARK  220  A    between atoms: _551  and  _554
REMARK  221  A    between atoms: _554  and  _555
REMARK  222  A    between atoms: _555  and  _556
REMARK  223  A    between atoms: _559  and  _561
REMARK  224  A    between atoms: _561  and  _562
REMARK  225  A    between atoms: _565  and  _567
REMARK  226  A    between atoms: _567  and  _568
REMARK  227  A    between atoms: _567  and  _570
REMARK  228  A    between atoms: _570  and  _571
REMARK  229  A    between atoms: _573  and  _575
REMARK  230  A    between atoms: _575  and  _576
REMARK  231  A    between atoms: _578  and  _580
REMARK  232  A    between atoms: _580  and  _581
REMARK  233  A    between atoms: _580  and  _583
REMARK  234  A    between atoms: _583  and  _584
REMARK  235  A    between atoms: _587  and  _589
REMARK  236  A    between atoms: _589  and  _590
REMARK  237  A    between atoms: _592  and  _594
REMARK  238  A    between atoms: _594  and  _595
REMARK  239  A    between atoms: _594  and  _597
REMARK  240  A    between atoms: _597  and  _598
REMARK  241  A    between atoms: _603  and  _605
REMARK  242  A    between atoms: _605  and  _606
REMARK  243  A    between atoms: _605  and  _608
REMARK  244  A    between atoms: _608  and  _609
REMARK  245  A    between atoms: _609  and  _610
REMARK  246  A    between atoms: _617  and  _618
REMARK  247  A    between atoms: _618  and  _634
REMARK  248  A    between atoms: _619  and  _621
REMARK  249  A    between atoms: _621  and  _622
REMARK  250  A    between atoms: _622  and  _623
REMARK  251  A    between atoms: _627  and  _629
REMARK  252  A    between atoms: _629  and  _630
REMARK  253  A    between atoms: _629  and  _637
REMARK  254  A    between atoms: _630  and  _631
REMARK  255  A    between atoms: _631  and  _632
REMARK  256  A    between atoms: _632  and  _633
REMARK  257  A    between atoms: _633  and  _634
REMARK  258  A    between atoms: _639  and  _641
REMARK  259  A    between atoms: _641  and  _642
REMARK  260  A    between atoms: _641  and  _644
REMARK  261  A    between atoms: _644  and  _645
REMARK  262  A    between atoms: _648  and  _650
REMARK  263  A    between atoms: _650  and  _651
REMARK  264  A    between atoms: _653  and  _655
REMARK  265  A    between atoms: _655  and  _656
REMARK  266  A    between atoms: _659  and  _661
REMARK  267  A    between atoms: _661  and  _662
REMARK  268  A    between atoms: _661  and  _664
REMARK  269  A    between atoms: _664  and  _665
REMARK  270  A    between atoms: _670  and  _671
REMARK                            x       y       z     vdW  Elec       q    Type
REMARK                         _______ _______ _______ _____ _____    ______ ____
ROOT
ATOM      1  C   ASP A   2      41.167  18.265  34.072  0.00  0.00    +0.241 C 
ATOM      2  O   ASP A   2      41.326  17.235  34.728  0.00  0.00    -0.273 OA
ATOM      3  N   THR A   3      41.968  19.321  34.186  0.00  0.00    -0.295 N 
ATOM      4  H   THR A   3      41.767  20.179  33.634  0.00  0.00    +0.150 HD
ENDROOT
BRANCH   1   5
ATOM      5  CA  ASP A   2      40.022  18.359  33.063  0.00  0.00    +0.160 C 
BRANCH   5   8
ATOM      6  C   ASN A   1      38.280  17.260  34.434  0.00  0.00    +0.239 C 
ATOM      7  O   ASN A   1      38.211  18.167  35.280  0.00  0.00    -0.274 OA
ATOM      8  N   ASP A   2      39.024  17.324  33.330  0.00  0.00    -0.297 N 
ATOM      9  H   ASP A   2      38.885  16.587  32.609  0.00  0.00    +0.150 HD
BRANCH   6  10
ATOM     10  CA  ASN A   1      37.504  15.953  34.592  0.00  0.00    +0.154 C 
BRANCH  10  11
ATOM     11  N   ASN A   1      38.293  15.018  35.393  0.00  0.00    -0.238 NA
ATOM     12  H   ASN A   1      38.058  14.903  36.399  0.00  0.00    +0.142 HD
ENDBRANCH  10  11
BRANCH  10  13
ATOM     13  CB  ASN A   1      36.119  16.179  35.220  0.00  0.00    +0.111 C 
BRANCH  13  14
ATOM     14  CG  ASN A   1      35.100  16.743  34.238  0.00  0.00    +0.221 C 
ATOM     15  ND2 ASN A   1      34.023  17.312  34.772  0.00  0.00    -0.329 N 
ATOM     16 HD21 ASN A   1      33.918  17.360  35.806  0.00  0.00    +0.145 HD
ATOM     17 HD22 ASN A   1      33.285  17.709  34.156  0.00  0.00    +0.145 HD
ATOM     18  OD1 ASN A   1      35.270  16.662  33.018  0.00  0.00    -0.275 OA
ENDBRANCH  13  14
ENDBRANCH  10  13
ENDBRANCH   6  10
ENDBRANCH   5   8
BRANCH   5  19
ATOM     19  CB  ASP A   2      39.409  19.765  32.988  0.00  0.00    +0.143 C 
BRANCH  19  20
ATOM     20  CG  ASP A   2      40.100  20.626  31.945  0.00  0.00    +0.367 C 
ATOM     21  OD2 ASP A   2      40.979  21.408  32.337  0.00  0.00    -0.246 OA
ATOM     22  OD1 ASP A   2      39.805  20.486  30.730  0.00  0.00    -0.246 OA
ENDBRANCH  19  20
ENDBRANCH   5  19
ENDBRANCH   1   5
BRANCH   3  23
ATOM     23  CA  THR A   3      43.128  19.293  35.077  0.00  0.00    +0.176 C 
BRANCH  23  24
ATOM     24  C   THR A   3      42.793  19.721  36.508  0.00  0.00    +0.243 C 
ATOM     25  O   THR A   3      43.659  19.687  37.383  0.00  0.00    -0.273 OA
ATOM     26  N   HIS A   4      41.548  20.123  36.757  0.00  0.00    -0.298 N 
ATOM     27  H   HIS A   4      40.822  20.065  36.015  0.00  0.00    +0.150 HD
BRANCH  26  28
ATOM     28  CA  HIS A   4      41.208  20.646  38.080  0.00  0.00    +0.143 C 
BRANCH  28  29
ATOM     29  C   HIS A   4      41.542  19.687  39.233  0.00  0.00    +0.227 C 
ATOM     30  O   HIS A   4      42.027  20.137  40.270  0.00  0.00    -0.286 OA
ENDBRANCH  28  29
BRANCH  28  31
ATOM     31  CB  HIS A   4      39.765  21.185  38.153  0.00  0.00    +0.075 C 
BRANCH  31  32
ATOM     32  CG  HIS A   4      39.363  21.993  36.956  0.00  0.00    +0.082 A 
ATOM     33  ND1 HIS A   4      38.067  22.047  36.498  0.00  0.00    -0.227 NA
ATOM     34  CE1 HIS A   4      38.010  22.813  35.423  0.00  0.00    +0.199 A 
ATOM     35  NE2 HIS A   4      39.229  23.249  35.158  0.00  0.00    -0.221 NA
ATOM     36  CD2 HIS A   4      40.095  22.750  36.102  0.00  0.00    +0.115 A 
ENDBRANCH  31  32
ENDBRANCH  28  31
ENDBRANCH  26  28
ENDBRANCH  23  24
BRANCH  23  37
ATOM     37  CB  THR A   3      44.284  20.186  34.559  0.00  0.00    +0.137 C 
ATOM     38  CG2 THR A   3      44.775  19.708  33.208  0.00  0.00    +0.034 C 
BRANCH  37  39
ATOM     39  OG1 THR A   3      43.833  21.535  34.443  0.00  0.00    -0.382 OA
ATOM     40  HG1 THR A   3      43.538  21.860  35.330  0.00  0.00    +0.210 HD
ENDBRANCH  37  39
ENDBRANCH  23  37
ENDBRANCH   3  23
TORSDOF 16
REMARK  Name = ../refined-set-2016/3g2k/3g2k_pocket.pdb
REMARK  270 active torsions:
REMARK  status: ('A' for Active; 'I' for Inactive)
REMARK    1  A    between atoms: _1  and  _3
REMARK    2  A    between atoms: _3  and  _4
REMARK    3  A    between atoms: _3  and  _6
REMARK    4  A    between atoms: _6  and  _7
REMARK    5  A    between atoms: _12  and  _13
REMARK    6  A    between atoms: _15  and  _17
REMARK    7  A    between atoms: _17  and  _18
REMARK    8  A    between atoms: _17  and  _20
REMARK    9  A    between atoms: _20  and  _21
REMARK   10  A    between atoms: _24  and  _26
REMARK   11  A    between atoms: _26  and  _27
REMARK   12  A    between atoms: _26  and  _29
REMARK   13  A    between atoms: _29  and  _30
REMARK   14  A    between atoms: _30  and  _31
REMARK   15  A    between atoms: _34  and  _36
REMARK   16  A    between atoms: _36  and  _37
REMARK   17  A    between atoms: _36  and  _39
REMARK   18  A    between atoms: _39  and  _40
REMARK   19  A    between atoms: _45  and  _47
REMARK   20  A    between atoms: _47  and  _48
REMARK   21  A    between atoms: _50  and  _52
REMARK   22  A    between atoms: _52  and  _53
REMARK   23  A    between atoms: _55  and  _57
REMARK   24  A    between atoms: _57  and  _58
REMARK   25  A    between atoms: _57  and  _60
REMARK   26  A    between atoms: _60  and  _61
REMARK   27  A    between atoms: _64  and  _66
REMARK   28  A    between atoms: _66  and  _67
REMARK   29  A    between atoms: _69  and  _71
REMARK   30  A    between atoms: _71  and  _72
REMARK   31  A    between atoms: _71  and  _74
REMARK   32  A    between atoms: _74  and  _75
REMARK   33  A    between atoms: _75  and  _76
REMARK   34  A    between atoms: _76  and  _77
REMARK   35  A    between atoms: _86  and  _88
REMARK   36  A    between atoms: _88  and  _89
REMARK   37  A    between atoms: _88  and  _91
REMARK   38  A    between atoms: _91  and  _92
REMARK   39  A    between atoms: _95  and  _97
REMARK   40  A    between atoms: _97  and  _98
REMARK   41  A    between atoms: _101  and  _103
REMARK   42  A    between atoms: _103  and  _104
REMARK   43  A    between atoms: _103  and  _106
REMARK   44  A    between atoms: _106  and  _107
REMARK   45  A    between atoms: _113  and  _115
REMARK   46  A    between atoms: _115  and  _116
REMARK   47  A    between atoms: _115  and  _118
REMARK   48  A    between atoms: _118  and  _119
REMARK   49  A    between atoms: _124  and  _125
REMARK   50  A    between atoms: _128  and  _129
REMARK   51  A    between atoms: _134  and  _136
REMARK   52  A    between atoms: _136  and  _137
REMARK   53  A    between atoms: _136  and  _139
REMARK   54  A    between atoms: _139  and  _140
REMARK   55  A    between atoms: _145  and  _147
REMARK   56  A    between atoms: _147  and  _148
REMARK   57  A    between atoms: _147  and  _150
REMARK   58  A    between atoms: _150  and  _151
REMARK   59  A    between atoms: _154  and  _156
REMARK   60  A    between atoms: _156  and  _157
REMARK   61  A    between atoms: _156  and  _159
REMARK   62  A    between atoms: _159  and  _160
REMARK   63  A    between atoms: _165  and  _167
REMARK   64  A    between atoms: _167  and  _168
REMARK   65  A    between atoms: _167  and  _170
REMARK   66  A    between atoms: _170  and  _171
REMARK   67  A    between atoms: _177  and  _179
REMARK   68  A    between atoms: _179  and  _180
REMARK   69  A    between atoms: _179  and  _182
REMARK   70  A    between atoms: _182  and  _183
REMARK   71  A    between atoms: _189  and  _191
REMARK   72  A    between atoms: _191  and  _192
REMARK   73  A    between atoms: _191  and  _194
REMARK   74  A    between atoms: _194  and  _195
REMARK   75  A    between atoms: _195  and  _196
REMARK   76  A    between atoms: _199  and  _201
REMARK   77  A    between atoms: _201  and  _202
REMARK   78  A    between atoms: _201  and  _204
REMARK   79  A    between atoms: _204  and  _205
REMARK   80  A    between atoms: _205  and  _206
REMARK   81  A    between atoms: _206  and  _207
REMARK   82  A    between atoms: _216  and  _218
REMARK   83  A    between atoms: _218  and  _219
REMARK   84  A    between atoms: _218  and  _221
REMARK   85  A    between atoms: _221  and  _222
REMARK   86  A    between atoms: _222  and  _223
REMARK   87  A    between atoms: _226  and  _228
REMARK   88  A    between atoms: _228  and  _229
REMARK   89  A    between atoms: _228  and  _231
REMARK   90  A    between atoms: _231  and  _232
REMARK   91  A    between atoms: _237  and  _239
REMARK   92  A    between atoms: _239  and  _240
REMARK   93  A    between atoms: _239  and  _242
REMARK   94  A    between atoms: _242  and  _243
REMARK   95  A    between atoms: _246  and  _248
REMARK   96  A    between atoms: _248  and  _249
REMARK   97  A    between atoms: _248  and  _251
REMARK   98  A    between atoms: _251  and  _252
REMARK   99  A    between atoms: _255  and  _257
REMARK  100  A    between atoms: _257  and  _258
REMARK  101  A    between atoms: _257  and  _260
REMARK  102  A    between atoms: _260  and  _261
REMARK  103  A    between atoms: _266  and  _268
REMARK  104  A    between atoms: _268  and  _269
REMARK  105  A    between atoms: _268  and  _271
REMARK  106  A    between atoms: _271  and  _272
REMARK  107  A    between atoms: _277  and  _278
REMARK  108  A    between atoms: _280  and  _282
REMARK  109  A    between atoms: _282  and  _283
REMARK  110  A    between atoms: _282  and  _285
REMARK  111  A    between atoms: _285  and  _286
REMARK  112  A    between atoms: _289  and  _291
REMARK  113  A    between atoms: _291  and  _292
REMARK  114  A    between atoms: _291  and  _294
REMARK  115  A    between atoms: _294  and  _295
REMARK  116  A    between atoms: _300  and  _302
REMARK  117  A    between atoms: _302  and  _303
REMARK  118  A    between atoms: _302  and  _305
REMARK  119  A    between atoms: _305  and  _306
REMARK  120  A    between atoms: _311  and  _313
REMARK  121  A    between atoms: _313  and  _314
REMARK  122  A    between atoms: _313  and  _316
REMARK  123  A    between atoms: _316  and  _317
REMARK  124  A    between atoms: _320  and  _322
REMARK  125  A    between atoms: _322  and  _323
REMARK  126  A    between atoms: _322  and  _325
REMARK  127  A    between atoms: _328  and  _330
REMARK  128  A    between atoms: _330  and  _331
REMARK  129  A    between atoms: _330  and  _333
REMARK  130  A    between atoms: _333  and  _334
REMARK  131  A    between atoms: _337  and  _339
REMARK  132  A    between atoms: _339  and  _340
REMARK  133  A    between atoms: _339  and  _342
REMARK  134  A    between atoms: _342  and  _343
REMARK  135  A    between atoms: _343  and  _344
REMARK  136  A    between atoms: _347  and  _349
REMARK  137  A    between atoms: _349  and  _350
REMARK  138  A    between atoms: _353  and  _355
REMARK  139  A    between atoms: _355  and  _356
REMARK  140  A    between atoms: _355  and  _358
REMARK  141  A    between atoms: _358  and  _359
REMARK  142  A    between atoms: _362  and  _364
REMARK  143  A    between atoms: _364  and  _365
REMARK  144  A    between atoms: _364  and  _367
REMARK  145  A    between atoms: _367  and  _368
REMARK  146  A    between atoms: _368  and  _369
REMARK  147  A    between atoms: _372  and  _374
REMARK  148  A    between atoms: _374  and  _375
REMARK  149  A    between atoms: _374  and  _377
REMARK  150  A    between atoms: _377  and  _378
REMARK  151  A    between atoms: _378  and  _379
REMARK  152  A    between atoms: _379  and  _380
REMARK  153  A    between atoms: _389  and  _391
REMARK  154  A    between atoms: _391  and  _392
REMARK  155  A    between atoms: _391  and  _394
REMARK  156  A    between atoms: _394  and  _395
REMARK  157  A    between atoms: _405  and  _407
REMARK  158  A    between atoms: _407  and  _408
REMARK  159  A    between atoms: _407  and  _410
REMARK  160  A    between atoms: _410  and  _411
REMARK  161  A    between atoms: _416  and  _418
REMARK  162  A    between atoms: _418  and  _419
REMARK  163  A    between atoms: _421  and  _423
REMARK  164  A    between atoms: _423  and  _424
REMARK  165  A    between atoms: _423  and  _426
REMARK  166  A    between atoms: _429  and  _431
REMARK  167  A    between atoms: _431  and  _432
REMARK  168  A    between atoms: _435  and  _437
REMARK  169  A    between atoms: _437  and  _438
REMARK  170  A    between atoms: _437  and  _440
REMARK  171  A    between atoms: _440  and  _441
REMARK  172  A    between atoms: _446  and  _448
REMARK  173  A    between atoms: _448  and  _449
REMARK  174  A    between atoms: _448  and  _451
REMARK  175  A    between atoms: _451  and  _452
REMARK  176  A    between atoms: _452  and  _453
REMARK  177  A    between atoms: _453  and  _454
REMARK  178  A    between atoms: _454  and  _455
REMARK  179  A    between atoms: _459  and  _461
REMARK  180  A    between atoms: _461  and  _462
REMARK  181  A    between atoms: _461  and  _464
REMARK  182  A    between atoms: _464  and  _465
REMARK  183  A    between atoms: _470  and  _472
REMARK  184  A    between atoms: _472  and  _473
REMARK  185  A    between atoms: _475  and  _477
REMARK  186  A    between atoms: _477  and  _478
REMARK  187  A    between atoms: _477  and  _480
REMARK  188  A    between atoms: _480  and  _481
REMARK  189  A    between atoms: _481  and  _482
REMARK  190  A    between atoms: _482  and  _483
REMARK  191  A    between atoms: _483  and  _484
REMARK  192  A    between atoms: _488  and  _490
REMARK  193  A    between atoms: _490  and  _491
REMARK  194  A    between atoms: _490  and  _493
REMARK  195  A    between atoms: _493  and  _494
REMARK  196  A    between atoms: _494  and  _495
REMARK  197  A    between atoms: _495  and  _496
REMARK  198  A    between atoms: _505  and  _507
REMARK  199  A    between atoms: _507  and  _508
REMARK  200  A    between atoms: _507  and  _510
REMARK  201  A    between atoms: _510  and  _511
REMARK  202  A    between atoms: _516  and  _517
REMARK  203  A    between atoms: _519  and  _521
REMARK  204  A    between atoms: _521  and  _522
REMARK  205  A    between atoms: _521  and  _524
REMARK  206  A    between atoms: _524  and  _525
REMARK  207  A    between atoms: _525  and  _526
REMARK  208  A    between atoms: _526  and  _527
REMARK  209  A    between atoms: _527  and  _528
REMARK  210  A    between atoms: _532  and  _534
REMARK  211  A    between atoms: _534  and  _535
REMARK  212  A    between atoms: _534  and  _537
REMARK  213  A    between atoms: _537  and  _538
REMARK  214  A    between atoms: _540  and  _542
REMARK  215  A    between atoms: _542  and  _543
REMARK  216  A    between atoms: _542  and  _545
REMARK  217  A    between atoms: _545  and  _546
REMARK  218  A    between atoms: _549  and  _551
REMARK  219  A    between atoms: _551  and  _552
REMARK  220  A    between atoms: _551  and  _554
REMARK  221  A    between atoms: _554  and  _555
REMARK  222  A    between atoms: _555  and  _556
REMARK  223  A    between atoms: _559  and  _561
REMARK  224  A    between atoms: _561  and  _562
REMARK  225  A    between atoms: _565  and  _567
REMARK  226  A    between atoms: _567  and  _568
REMARK  227  A    between atoms: _567  and  _570
REMARK  228  A    between atoms: _570  and  _571
REMARK  229  A    between atoms: _573  and  _575
REMARK  230  A    between atoms: _575  and  _576
REMARK  231  A    between atoms: _578  and  _580
REMARK  232  A    between atoms: _580  and  _581
REMARK  233  A    between atoms: _580  and  _583
REMARK  234  A    between atoms: _583  and  _584
REMARK  235  A    between atoms: _587  and  _589
REMARK  236  A    between atoms: _589  and  _590
REMARK  237  A    between atoms: _592  and  _594
REMARK  238  A    between atoms: _594  and  _595
REMARK  239  A    between atoms: _594  and  _597
REMARK  240  A    between atoms: _597  and  _598
REMARK  241  A    between atoms: _603  and  _605
REMARK  242  A    between atoms: _605  and  _606
REMARK  243  A    between atoms: _605  and  _608
REMARK  244  A    between atoms: _608  and  _609
REMARK  245  A    between atoms: _609  and  _610
REMARK  246  A    between atoms: _617  and  _618
REMARK  247  A    between atoms: _618  and  _634
REMARK  248  A    between atoms: _619  and  _621
REMARK  249  A    between atoms: _621  and  _622
REMARK  250  A    between atoms: _622  and  _623
REMARK  251  A    between atoms: _627  and  _629
REMARK  252  A    between atoms: _629  and  _630
REMARK  253  A    between atoms: _629  and  _637
REMARK  254  A    between atoms: _630  and  _631
REMARK  255  A    between atoms: _631  and  _632
REMARK  256  A    between atoms: _632  and  _633
REMARK  257  A    between atoms: _633  and  _634
REMARK  258  A    between atoms: _639  and  _641
REMARK  259  A    between atoms: _641  and  _642
REMARK  260  A    between atoms: _641  and  _644
REMARK  261  A    between atoms: _644  and  _645
REMARK  262  A    between atoms: _648  and  _650
REMARK  263  A    between atoms: _650  and  _651
REMARK  264  A    between atoms: _653  and  _655
REMARK  265  A    between atoms: _655  and  _656
REMARK  266  A    between atoms: _659  and  _661
REMARK  267  A    between atoms: _661  and  _662
REMARK  268  A    between atoms: _661  and  _664
REMARK  269  A    between atoms: _664  and  _665
REMARK  270  A    between atoms: _670  and  _671
REMARK                            x       y       z     vdW  Elec       q    Type
REMARK                         _______ _______ _______ _____ _____    ______ ____
ROOT
ATOM      1  C   ASN A   3      39.452  18.314  27.537  0.00  0.00    +0.241 C 
ATOM      2  N   HIS A   4      39.138  19.556  27.905  0.00  0.00    -0.297 N 
ATOM      3  H   HIS A   4      39.809  20.086  28.498  0.00  0.00    +0.150 HD
ATOM      4  O   ASN A   3      38.780  17.653  26.741  0.00  0.00    -0.273 OA
ENDROOT
BRANCH   2   5
ATOM      5  CA  HIS A   4      37.892  20.202  27.510  0.00  0.00    +0.155 C 
BRANCH   5   6
ATOM      6  C   HIS A   4      38.092  21.535  26.783  0.00  0.00    +0.241 C 
ATOM      7  O   HIS A   4      37.113  22.228  26.501  0.00  0.00    -0.273 OA
ATOM      8  N   THR A   5      39.343  21.907  26.493  0.00  0.00    -0.295 N 
ATOM      9  H   THR A   5      40.133  21.276  26.736  0.00  0.00    +0.150 HD
BRANCH   8  10
ATOM     10  CA  THR A   5      39.620  23.193  25.837  0.00  0.00    +0.176 C 
BRANCH  10  11
ATOM     11  C   THR A   5      41.035  23.288  25.265  0.00  0.00    +0.243 C 
ATOM     12  O   THR A   5      41.956  22.640  25.765  0.00  0.00    -0.273 OA
ATOM     13  N   VAL A   6      41.190  24.093  24.214  0.00  0.00    -0.297 N 
ATOM     14  H   VAL A   6      40.350  24.524  23.779  0.00  0.00    +0.150 HD
BRANCH  13  15
ATOM     15  CA  VAL A   6      42.513  24.387  23.654  0.00  0.00    +0.149 C 
BRANCH  15  16
ATOM     16  C   VAL A   6      42.891  25.857  23.821  0.00  0.00    +0.241 C 
ATOM     17  N   LEU A   7      41.989  26.656  24.393  0.00  0.00    -0.298 N 
ATOM     18  H   LEU A   7      41.064  26.269  24.669  0.00  0.00    +0.150 HD
ATOM     19  O   VAL A   6      43.985  26.258  23.428  0.00  0.00    -0.273 OA
BRANCH  17  20
ATOM     20  CA  LEU A   7      42.279  28.064  24.638  0.00  0.00    +0.137 C 
BRANCH  20  21
ATOM     21  C   LEU A   7      43.390  28.191  25.676  0.00  0.00    +0.227 C 
ATOM     22  O   LEU A   7      43.277  27.643  26.777  0.00  0.00    -0.286 OA
ENDBRANCH  20  21
BRANCH  20  23
ATOM     23  CB  LEU A   7      41.031  28.834  25.087  0.00  0.00    +0.028 C 
BRANCH  23  24
ATOM     24  CG  LEU A   7      39.878  28.992  24.089  0.00  0.00    +0.002 C 
ATOM     25  CD2 LEU A   7      38.750  29.775  24.738  0.00  0.00    +0.000 C 
ATOM     26  CD1 LEU A   7      40.317  29.673  22.791  0.00  0.00    +0.000 C 
ENDBRANCH  23  24
ENDBRANCH  20  23
ENDBRANCH  17  20
ENDBRANCH  15  16
BRANCH  15  27
ATOM     27  CB  VAL A   6      42.649  23.988  22.148  0.00  0.00    +0.027 C 
ATOM     28  CG2 VAL A   6      42.386  22.488  21.948  0.00  0.00    +0.002 C 
ATOM     29  CG1 VAL A   6      41.739  24.853  21.259  0.00  0.00    +0.002 C 
ENDBRANCH  15  27
ENDBRANCH  13  15
ENDBRANCH  10  11
BRANCH  10  30
ATOM     30  CB  THR A   5      39.351  24.409  26.782  0.00  0.00    +0.137 C 
ATOM     31  CG2 THR A   5      40.259  24.379  28.010  0.00  0.00    +0.034 C 
BRANCH  30  32
ATOM     32  OG1 THR A   5      39.526  25.638  26.062  0.00  0.00    -0.382 OA
ATOM     33  HG1 THR A   5      38.891  25.668  25.303  0.00  0.00    +0.210 HD
ENDBRANCH  30  32
ENDBRANCH  10  30
ENDBRANCH   8  10
ENDBRANCH   5   6
BRANCH   5  34
ATOM     34  CB  HIS A   4      37.000  20.442  28.738  0.00  0.00    +0.076 C 
BRANCH  34  35
ATOM     35  CG  HIS A   4      36.559  19.193  29.435  0.00  0.00    +0.082 A 
ATOM     36  CD2 HIS A   4      37.131  18.482  30.436  0.00  0.00    +0.115 A 
ATOM     37  NE2 HIS A   4      36.294  17.430  30.715  0.00  0.00    -0.221 NA
ATOM     38  CE1 HIS A   4      35.244  17.493  29.915  0.00  0.00    +0.199 A 
ATOM     39  ND1 HIS A   4      35.376  18.551  29.136  0.00  0.00    -0.227 NA
ENDBRANCH  34  35
ENDBRANCH   5  34
ENDBRANCH   2   5
BRANCH   1  40
ATOM     40  CA  ASN A   3      40.719  17.728  28.146  0.00  0.00    +0.158 C 
BRANCH  40  43
ATOM     41  C   THR A   2      40.132  15.870  29.649  0.00  0.00    +0.243 C 
ATOM     42  O   THR A   2      39.972  16.610  30.625  0.00  0.00    -0.273 OA
ATOM     43  N   ASN A   3      40.512  16.308  28.451  0.00  0.00    -0.297 N 
ATOM     44  H   ASN A   3      40.670  15.611  27.696  0.00  0.00    +0.150 HD
BRANCH  41  45
ATOM     45  CA  THR A   2      39.882  14.371  29.769  0.00  0.00    +0.176 C 
BRANCH  45  47
ATOM     46  C   TYR A   1      41.729  12.982  30.577  0.00  0.00    +0.239 C 
ATOM     47  N   THR A   2      40.724  13.816  30.821  0.00  0.00    -0.295 N 
ATOM     48  H   THR A   2      40.530  14.085  31.807  0.00  0.00    +0.150 HD
ATOM     49  O   TYR A   1      42.008  12.561  29.457  0.00  0.00    -0.274 OA
BRANCH  46  50
ATOM     50  CA  TYR A   1      42.540  12.557  31.794  0.00  0.00    +0.149 C 
BRANCH  50  51
ATOM     51  N   TYR A   1      42.738  11.118  31.846  0.00  0.00    -0.238 NA
ATOM     52  H   TYR A   1      43.130  10.633  31.014  0.00  0.00    +0.142 HD
ENDBRANCH  50  51
BRANCH  50  53
ATOM     53  CB  TYR A   1      43.906  13.257  31.840  0.00  0.00    +0.053 C 
BRANCH  53  54
ATOM     54  CG  TYR A   1      43.976  14.672  31.286  0.00  0.00    -0.020 A 
ATOM     55  CD2 TYR A   1      43.234  15.710  31.847  0.00  0.00    -0.001 A 
ATOM     56  CE2 TYR A   1      43.312  17.009  31.345  0.00  0.00    +0.036 A 
ATOM     57  CZ  TYR A   1      44.161  17.282  30.282  0.00  0.00    +0.134 A 
ATOM     58  CE1 TYR A   1      44.910  16.268  29.706  0.00  0.00    +0.036 A 
ATOM     59  CD1 TYR A   1      44.823  14.973  30.219  0.00  0.00    -0.001 A 
BRANCH  57  60
ATOM     60  OH  TYR A   1      44.235  18.564  29.783  0.00  0.00    -0.506 OA
ATOM     61  HH  TYR A   1      43.342  18.843  29.460  0.00  0.00    +0.292 HD
ENDBRANCH  57  60
ENDBRANCH  53  54
ENDBRANCH  50  53
ENDBRANCH  46  50
ENDBRANCH  45  47
BRANCH  45  62
ATOM     62  CB  THR A   2      38.375  14.135  30.061  0.00  0.00    +0.137 C 
ATOM     63  CG2 THR A   2      37.505  14.691  28.942  0.00  0.00    +0.034 C 
BRANCH  62  64
ATOM     64  OG1 THR A   2      38.118  12.736  30.196  0.00  0.00    -0.382 OA
ATOM     65  HG1 THR A   2      38.364  12.274  29.356  0.00  0.00    +0.210 HD
ENDBRANCH  62  64
ENDBRANCH  45  62
ENDBRANCH  41  45
ENDBRANCH  40  43
BRANCH  40  66
ATOM     66  CB  ASN A   3      41.921  17.889  27.195  0.00  0.00    +0.114 C 
BRANCH  66  67
ATOM     67  CG  ASN A   3      42.058  19.300  26.639  0.00  0.00    +0.222 C 
ATOM     68  ND2 ASN A   3      42.938  20.095  27.236  0.00  0.00    -0.329 N 
ATOM     69 HD21 ASN A   3      43.478  19.751  28.056  0.00  0.00    +0.145 HD
ATOM     70 HD22 ASN A   3      43.088  21.062  26.884  0.00  0.00    +0.145 HD
ATOM     71  OD1 ASN A   3      41.398  19.658  25.671  0.00  0.00    -0.275 OA
ENDBRANCH  66  67
ENDBRANCH  40  66
ENDBRANCH   1  40
TORSDOF 28
REMARK  Name = ../refined-set-2016/3g2k/3g2k_pocket.pdb
REMARK  270 active torsions:
REMARK  status: ('A' for Active; 'I' for Inactive)
REMARK    1  A    between atoms: _1  and  _3
REMARK    2  A    between atoms: _3  and  _4
REMARK    3  A    between atoms: _3  and  _6
REMARK    4  A    between atoms: _6  and  _7
REMARK    5  A    between atoms: _12  and  _13
REMARK    6  A    between atoms: _15  and  _17
REMARK    7  A    between atoms: _17  and  _18
REMARK    8  A    between atoms: _17  and  _20
REMARK    9  A    between atoms: _20  and  _21
REMARK   10  A    between atoms: _24  and  _26
REMARK   11  A    between atoms: _26  and  _27
REMARK   12  A    between atoms: _26  and  _29
REMARK   13  A    between atoms: _29  and  _30
REMARK   14  A    between atoms: _30  and  _31
REMARK   15  A    between atoms: _34  and  _36
REMARK   16  A    between atoms: _36  and  _37
REMARK   17  A    between atoms: _36  and  _39
REMARK   18  A    between atoms: _39  and  _40
REMARK   19  A    between atoms: _45  and  _47
REMARK   20  A    between atoms: _47  and  _48
REMARK   21  A    between atoms: _50  and  _52
REMARK   22  A    between atoms: _52  and  _53
REMARK   23  A    between atoms: _55  and  _57
REMARK   24  A    between atoms: _57  and  _58
REMARK   25  A    between atoms: _57  and  _60
REMARK   26  A    between atoms: _60  and  _61
REMARK   27  A    between atoms: _64  and  _66
REMARK   28  A    between atoms: _66  and  _67
REMARK   29  A    between atoms: _69  and  _71
REMARK   30  A    between atoms: _71  and  _72
REMARK   31  A    between atoms: _71  and  _74
REMARK   32  A    between atoms: _74  and  _75
REMARK   33  A    between atoms: _75  and  _76
REMARK   34  A    between atoms: _76  and  _77
REMARK   35  A    between atoms: _86  and  _88
REMARK   36  A    between atoms: _88  and  _89
REMARK   37  A    between atoms: _88  and  _91
REMARK   38  A    between atoms: _91  and  _92
REMARK   39  A    between atoms: _95  and  _97
REMARK   40  A    between atoms: _97  and  _98
REMARK   41  A    between atoms: _101  and  _103
REMARK   42  A    between atoms: _103  and  _104
REMARK   43  A    between atoms: _103  and  _106
REMARK   44  A    between atoms: _106  and  _107
REMARK   45  A    between atoms: _113  and  _115
REMARK   46  A    between atoms: _115  and  _116
REMARK   47  A    between atoms: _115  and  _118
REMARK   48  A    between atoms: _118  and  _119
REMARK   49  A    between atoms: _124  and  _125
REMARK   50  A    between atoms: _128  and  _129
REMARK   51  A    between atoms: _134  and  _136
REMARK   52  A    between atoms: _136  and  _137
REMARK   53  A    between atoms: _136  and  _139
REMARK   54  A    between atoms: _139  and  _140
REMARK   55  A    between atoms: _145  and  _147
REMARK   56  A    between atoms: _147  and  _148
REMARK   57  A    between atoms: _147  and  _150
REMARK   58  A    between atoms: _150  and  _151
REMARK   59  A    between atoms: _154  and  _156
REMARK   60  A    between atoms: _156  and  _157
REMARK   61  A    between atoms: _156  and  _159
REMARK   62  A    between atoms: _159  and  _160
REMARK   63  A    between atoms: _165  and  _167
REMARK   64  A    between atoms: _167  and  _168
REMARK   65  A    between atoms: _167  and  _170
REMARK   66  A    between atoms: _170  and  _171
REMARK   67  A    between atoms: _177  and  _179
REMARK   68  A    between atoms: _179  and  _180
REMARK   69  A    between atoms: _179  and  _182
REMARK   70  A    between atoms: _182  and  _183
REMARK   71  A    between atoms: _189  and  _191
REMARK   72  A    between atoms: _191  and  _192
REMARK   73  A    between atoms: _191  and  _194
REMARK   74  A    between atoms: _194  and  _195
REMARK   75  A    between atoms: _195  and  _196
REMARK   76  A    between atoms: _199  and  _201
REMARK   77  A    between atoms: _201  and  _202
REMARK   78  A    between atoms: _201  and  _204
REMARK   79  A    between atoms: _204  and  _205
REMARK   80  A    between atoms: _205  and  _206
REMARK   81  A    between atoms: _206  and  _207
REMARK   82  A    between atoms: _216  and  _218
REMARK   83  A    between atoms: _218  and  _219
REMARK   84  A    between atoms: _218  and  _221
REMARK   85  A    between atoms: _221  and  _222
REMARK   86  A    between atoms: _222  and  _223
REMARK   87  A    between atoms: _226  and  _228
REMARK   88  A    between atoms: _228  and  _229
REMARK   89  A    between atoms: _228  and  _231
REMARK   90  A    between atoms: _231  and  _232
REMARK   91  A    between atoms: _237  and  _239
REMARK   92  A    between atoms: _239  and  _240
REMARK   93  A    between atoms: _239  and  _242
REMARK   94  A    between atoms: _242  and  _243
REMARK   95  A    between atoms: _246  and  _248
REMARK   96  A    between atoms: _248  and  _249
REMARK   97  A    between atoms: _248  and  _251
REMARK   98  A    between atoms: _251  and  _252
REMARK   99  A    between atoms: _255  and  _257
REMARK  100  A    between atoms: _257  and  _258
REMARK  101  A    between atoms: _257  and  _260
REMARK  102  A    between atoms: _260  and  _261
REMARK  103  A    between atoms: _266  and  _268
REMARK  104  A    between atoms: _268  and  _269
REMARK  105  A    between atoms: _268  and  _271
REMARK  106  A    between atoms: _271  and  _272
REMARK  107  A    between atoms: _277  and  _278
REMARK  108  A    between atoms: _280  and  _282
REMARK  109  A    between atoms: _282  and  _283
REMARK  110  A    between atoms: _282  and  _285
REMARK  111  A    between atoms: _285  and  _286
REMARK  112  A    between atoms: _289  and  _291
REMARK  113  A    between atoms: _291  and  _292
REMARK  114  A    between atoms: _291  and  _294
REMARK  115  A    between atoms: _294  and  _295
REMARK  116  A    between atoms: _300  and  _302
REMARK  117  A    between atoms: _302  and  _303
REMARK  118  A    between atoms: _302  and  _305
REMARK  119  A    between atoms: _305  and  _306
REMARK  120  A    between atoms: _311  and  _313
REMARK  121  A    between atoms: _313  and  _314
REMARK  122  A    between atoms: _313  and  _316
REMARK  123  A    between atoms: _316  and  _317
REMARK  124  A    between atoms: _320  and  _322
REMARK  125  A    between atoms: _322  and  _323
REMARK  126  A    between atoms: _322  and  _325
REMARK  127  A    between atoms: _328  and  _330
REMARK  128  A    between atoms: _330  and  _331
REMARK  129  A    between atoms: _330  and  _333
REMARK  130  A    between atoms: _333  and  _334
REMARK  131  A    between atoms: _337  and  _339
REMARK  132  A    between atoms: _339  and  _340
REMARK  133  A    between atoms: _339  and  _342
REMARK  134  A    between atoms: _342  and  _343
REMARK  135  A    between atoms: _343  and  _344
REMARK  136  A    between atoms: _347  and  _349
REMARK  137  A    between atoms: _349  and  _350
REMARK  138  A    between atoms: _353  and  _355
REMARK  139  A    between atoms: _355  and  _356
REMARK  140  A    between atoms: _355  and  _358
REMARK  141  A    between atoms: _358  and  _359
REMARK  142  A    between atoms: _362  and  _364
REMARK  143  A    between atoms: _364  and  _365
REMARK  144  A    between atoms: _364  and  _367
REMARK  145  A    between atoms: _367  and  _368
REMARK  146  A    between atoms: _368  and  _369
REMARK  147  A    between atoms: _372  and  _374
REMARK  148  A    between atoms: _374  and  _375
REMARK  149  A    between atoms: _374  and  _377
REMARK  150  A    between atoms: _377  and  _378
REMARK  151  A    between atoms: _378  and  _379
REMARK  152  A    between atoms: _379  and  _380
REMARK  153  A    between atoms: _389  and  _391
REMARK  154  A    between atoms: _391  and  _392
REMARK  155  A    between atoms: _391  and  _394
REMARK  156  A    between atoms: _394  and  _395
REMARK  157  A    between atoms: _405  and  _407
REMARK  158  A    between atoms: _407  and  _408
REMARK  159  A    between atoms: _407  and  _410
REMARK  160  A    between atoms: _410  and  _411
REMARK  161  A    between atoms: _416  and  _418
REMARK  162  A    between atoms: _418  and  _419
REMARK  163  A    between atoms: _421  and  _423
REMARK  164  A    between atoms: _423  and  _424
REMARK  165  A    between atoms: _423  and  _426
REMARK  166  A    between atoms: _429  and  _431
REMARK  167  A    between atoms: _431  and  _432
REMARK  168  A    between atoms: _435  and  _437
REMARK  169  A    between atoms: _437  and  _438
REMARK  170  A    between atoms: _437  and  _440
REMARK  171  A    between atoms: _440  and  _441
REMARK  172  A    between atoms: _446  and  _448
REMARK  173  A    between atoms: _448  and  _449
REMARK  174  A    between atoms: _448  and  _451
REMARK  175  A    between atoms: _451  and  _452
REMARK  176  A    between atoms: _452  and  _453
REMARK  177  A    between atoms: _453  and  _454
REMARK  178  A    between atoms: _454  and  _455
REMARK  179  A    between atoms: _459  and  _461
REMARK  180  A    between atoms: _461  and  _462
REMARK  181  A    between atoms: _461  and  _464
REMARK  182  A    between atoms: _464  and  _465
REMARK  183  A    between atoms: _470  and  _472
REMARK  184  A    between atoms: _472  and  _473
REMARK  185  A    between atoms: _475  and  _477
REMARK  186  A    between atoms: _477  and  _478
REMARK  187  A    between atoms: _477  and  _480
REMARK  188  A    between atoms: _480  and  _481
REMARK  189  A    between atoms: _481  and  _482
REMARK  190  A    between atoms: _482  and  _483
REMARK  191  A    between atoms: _483  and  _484
REMARK  192  A    between atoms: _488  and  _490
REMARK  193  A    between atoms: _490  and  _491
REMARK  194  A    between atoms: _490  and  _493
REMARK  195  A    between atoms: _493  and  _494
REMARK  196  A    between atoms: _494  and  _495
REMARK  197  A    between atoms: _495  and  _496
REMARK  198  A    between atoms: _505  and  _507
REMARK  199  A    between atoms: _507  and  _508
REMARK  200  A    between atoms: _507  and  _510
REMARK  201  A    between atoms: _510  and  _511
REMARK  202  A    between atoms: _516  and  _517
REMARK  203  A    between atoms: _519  and  _521
REMARK  204  A    between atoms: _521  and  _522
REMARK  205  A    between atoms: _521  and  _524
REMARK  206  A    between atoms: _524  and  _525
REMARK  207  A    between atoms: _525  and  _526
REMARK  208  A    between atoms: _526  and  _527
REMARK  209  A    between atoms: _527  and  _528
REMARK  210  A    between atoms: _532  and  _534
REMARK  211  A    between atoms: _534  and  _535
REMARK  212  A    between atoms: _534  and  _537
REMARK  213  A    between atoms: _537  and  _538
REMARK  214  A    between atoms: _540  and  _542
REMARK  215  A    between atoms: _542  and  _543
REMARK  216  A    between atoms: _542  and  _545
REMARK  217  A    between atoms: _545  and  _546
REMARK  218  A    between atoms: _549  and  _551
REMARK  219  A    between atoms: _551  and  _552
REMARK  220  A    between atoms: _551  and  _554
REMARK  221  A    between atoms: _554  and  _555
REMARK  222  A    between atoms: _555  and  _556
REMARK  223  A    between atoms: _559  and  _561
REMARK  224  A    between atoms: _561  and  _562
REMARK  225  A    between atoms: _565  and  _567
REMARK  226  A    between atoms: _567  and  _568
REMARK  227  A    between atoms: _567  and  _570
REMARK  228  A    between atoms: _570  and  _571
REMARK  229  A    between atoms: _573  and  _575
REMARK  230  A    between atoms: _575  and  _576
REMARK  231  A    between atoms: _578  and  _580
REMARK  232  A    between atoms: _580  and  _581
REMARK  233  A    between atoms: _580  and  _583
REMARK  234  A    between atoms: _583  and  _584
REMARK  235  A    between atoms: _587  and  _589
REMARK  236  A    between atoms: _589  and  _590
REMARK  237  A    between atoms: _592  and  _594
REMARK  238  A    between atoms: _594  and  _595
REMARK  239  A    between atoms: _594  and  _597
REMARK  240  A    between atoms: _597  and  _598
REMARK  241  A    between atoms: _603  and  _605
REMARK  242  A    between atoms: _605  and  _606
REMARK  243  A    between atoms: _605  and  _608
REMARK  244  A    between atoms: _608  and  _609
REMARK  245  A    between atoms: _609  and  _610
REMARK  246  A    between atoms: _617  and  _618
REMARK  247  A    between atoms: _618  and  _634
REMARK  248  A    between atoms: _619  and  _621
REMARK  249  A    between atoms: _621  and  _622
REMARK  250  A    between atoms: _622  and  _623
REMARK  251  A    between atoms: _627  and  _629
REMARK  252  A    between atoms: _629  and  _630
REMARK  253  A    between atoms: _629  and  _637
REMARK  254  A    between atoms: _630  and  _631
REMARK  255  A    between atoms: _631  and  _632
REMARK  256  A    between atoms: _632  and  _633
REMARK  257  A    between atoms: _633  and  _634
REMARK  258  A    between atoms: _639  and  _641
REMARK  259  A    between atoms: _641  and  _642
REMARK  260  A    between atoms: _641  and  _644
REMARK  261  A    between atoms: _644  and  _645
REMARK  262  A    between atoms: _648  and  _650
REMARK  263  A    between atoms: _650  and  _651
REMARK  264  A    between atoms: _653  and  _655
REMARK  265  A    between atoms: _655  and  _656
REMARK  266  A    between atoms: _659  and  _661
REMARK  267  A    between atoms: _661  and  _662
REMARK  268  A    between atoms: _661  and  _664
REMARK  269  A    between atoms: _664  and  _665
REMARK  270  A    between atoms: _670  and  _671
REMARK                            x       y       z     vdW  Elec       q    Type
REMARK                         _______ _______ _______ _____ _____    ______ ____
ROOT
ATOM      1  C   GLU A   4      47.577  25.573  34.533  0.00  0.00    +0.241 C 
ATOM      2  N   ARG A   5      48.150  26.694  34.952  0.00  0.00    -0.297 N 
ATOM      3  H   ARG A   5      47.548  27.518  35.151  0.00  0.00    +0.150 HD
ATOM      4  O   GLU A   4      48.201  24.551  34.256  0.00  0.00    -0.273 OA
ENDROOT
BRANCH   1   5
ATOM      5  CA  GLU A   4      46.065  25.609  34.433  0.00  0.00    +0.149 C 
BRANCH   5   7
ATOM      6  C   LEU A   3      45.613  26.364  32.160  0.00  0.00    +0.241 C 
ATOM      7  N   GLU A   4      45.611  25.387  33.064  0.00  0.00    -0.297 N 
ATOM      8  H   GLU A   4      45.277  24.441  32.788  0.00  0.00    +0.150 HD
ATOM      9  O   LEU A   3      46.030  27.496  32.398  0.00  0.00    -0.273 OA
BRANCH   6  10
ATOM     10  CA  LEU A   3      45.042  26.019  30.787  0.00  0.00    +0.149 C 
BRANCH  10  13
ATOM     11  C   ALA A   2      42.857  27.098  30.671  0.00  0.00    +0.241 C 
ATOM     12  O   ALA A   2      42.354  26.263  31.432  0.00  0.00    -0.273 OA
ATOM     13  N   LEU A   3      44.137  27.062  30.305  0.00  0.00    -0.297 N 
ATOM     14  H   LEU A   3      44.502  27.793  29.661  0.00  0.00    +0.150 HD
BRANCH  11  15
ATOM     15  CA  ALA A   2      42.010  28.243  30.103  0.00  0.00    +0.149 C 
ATOM     16  CB  ALA A   2      40.850  27.700  29.275  0.00  0.00    +0.031 C 
BRANCH  15  19
ATOM     17  C   GLU A   1      43.187  30.359  29.796  0.00  0.00    +0.238 C 
ATOM     18  O   GLU A   1      42.908  30.735  30.941  0.00  0.00    -0.274 OA
ATOM     19  N   ALA A   2      42.803  29.182  29.308  0.00  0.00    -0.297 N 
ATOM     20  H   ALA A   2      43.073  28.923  28.338  0.00  0.00    +0.150 HD
BRANCH  17  21
ATOM     21  CA  GLU A   1      43.999  31.261  28.858  0.00  0.00    +0.145 C 
BRANCH  21  22
ATOM     22  N   GLU A   1      44.365  30.618  27.594  0.00  0.00    -0.238 NA
ATOM     23  H   GLU A   1      43.871  30.890  26.720  0.00  0.00    +0.142 HD
ENDBRANCH  21  22
BRANCH  21  24
ATOM     24  CB  GLU A   1      43.246  32.573  28.613  0.00  0.00    +0.038 C 
BRANCH  24  25
ATOM     25  CG  GLU A   1      41.876  32.424  27.946  0.00  0.00    +0.116 C 
BRANCH  25  26
ATOM     26  CD  GLU A   1      41.920  32.573  26.430  0.00  0.00    +0.365 C 
ATOM     27  OE2 GLU A   1      40.922  33.061  25.859  0.00  0.00    -0.246 OA
ATOM     28  OE1 GLU A   1      42.939  32.206  25.805  0.00  0.00    -0.246 OA
ENDBRANCH  25  26
ENDBRANCH  24  25
ENDBRANCH  21  24
ENDBRANCH  17  21
ENDBRANCH  15  19
ENDBRANCH  11  15
ENDBRANCH  10  13
BRANCH  10  29
ATOM     29  CB  LEU A   3      46.161  25.755  29.776  0.00  0.00    +0.029 C 
BRANCH  29  30
ATOM     30  CG  LEU A   3      45.766  25.195  28.403  0.00  0.00    +0.002 C 
ATOM     31  CD2 LEU A   3      44.863  23.956  28.497  0.00  0.00    +0.000 C 
ATOM     32  CD1 LEU A   3      47.018  24.866  27.611  0.00  0.00    +0.000 C 
ENDBRANCH  29  30
ENDBRANCH  10  29
ENDBRANCH   6  10
ENDBRANCH   5   7
BRANCH   5  33
ATOM     33  CB  GLU A   4      45.478  24.571  35.388  0.00  0.00    +0.041 C 
BRANCH  33  34
ATOM     34  CG  GLU A   4      43.989  24.730  35.657  0.00  0.00    +0.116 C 
BRANCH  34  35
ATOM     35  CD  GLU A   4      43.565  23.957  36.880  0.00  0.00    +0.365 C 
ATOM     36  OE2 GLU A   4      43.227  24.600  37.889  0.00  0.00    -0.246 OA
ATOM     37  OE1 GLU A   4      43.593  22.711  36.835  0.00  0.00    -0.246 OA
ENDBRANCH  34  35
ENDBRANCH  33  34
ENDBRANCH   5  33
ENDBRANCH   1   5
BRANCH   2  38
ATOM     38  CA  ARG A   5      49.590  26.816  35.144  0.00  0.00    +0.149 C 
BRANCH  38  39
ATOM     39  C   ARG A   5      49.849  27.462  36.500  0.00  0.00    +0.241 C 
ATOM     40  N   TRP A   6      50.138  26.643  37.505  0.00  0.00    -0.298 N 
ATOM     41  H   TRP A   6      50.292  25.634  37.307  0.00  0.00    +0.150 HD
ATOM     42  O   ARG A   5      49.768  28.679  36.637  0.00  0.00    -0.273 OA
BRANCH  40  43
ATOM     43  CA  TRP A   6      50.245  27.122  38.882  0.00  0.00    +0.141 C 
BRANCH  43  44
ATOM     44  C   TRP A   6      51.660  27.610  39.210  0.00  0.00    +0.227 C 
ATOM     45  O   TRP A   6      52.623  26.879  38.983  0.00  0.00    -0.286 OA
ENDBRANCH  43  44
BRANCH  43  46
ATOM     46  CB  TRP A   6      49.830  26.026  39.876  0.00  0.00    +0.056 C 
BRANCH  46  47
ATOM     47  CG  TRP A   6      48.340  25.778  39.953  0.00  0.00    -0.002 A 
ATOM     48  CD2 TRP A   6      47.354  26.627  40.566  0.00  0.00    +0.013 A 
ATOM     49  CE3 TRP A   6      47.410  27.861  41.234  0.00  0.00    +0.001 A 
ATOM     50  CZ3 TRP A   6      46.226  28.417  41.713  0.00  0.00    +0.000 A 
ATOM     51  CH2 TRP A   6      44.991  27.760  41.533  0.00  0.00    +0.001 A 
ATOM     52  CZ2 TRP A   6      44.907  26.553  40.882  0.00  0.00    +0.017 A 
ATOM     53  CE2 TRP A   6      46.096  25.993  40.403  0.00  0.00    +0.056 A 
ATOM     54  NE1 TRP A   6      46.311  24.818  39.728  0.00  0.00    -0.352 N 
ATOM     55  HE1 TRP A   6      45.576  24.132  39.460  0.00  0.00    +0.166 HD
ATOM     56  CD1 TRP A   6      47.658  24.693  39.462  0.00  0.00    +0.068 A 
ENDBRANCH  46  47
ENDBRANCH  43  46
ENDBRANCH  40  43
ENDBRANCH  38  39
BRANCH  38  57
ATOM     57  CB  ARG A   5      50.205  27.630  33.999  0.00  0.00    +0.033 C 
BRANCH  57  58
ATOM     58  CG  ARG A   5      50.247  26.875  32.664  0.00  0.00    +0.045 C 
BRANCH  58  59
ATOM     59  CD  ARG A   5      50.234  27.798  31.443  0.00  0.00    +0.174 C 
BRANCH  59  60
ATOM     60  NE  ARG A   5      51.299  28.793  31.490  0.00  0.00    -0.265 N 
ATOM     61  CZ  ARG A   5      51.108  30.109  31.599  0.00  0.00    +0.342 C 
ATOM     62  NH2 ARG A   5      49.879  30.611  31.660  0.00  0.00    -0.292 N 
ATOM     63 HH21 ARG A   5      49.740  31.638  31.745  0.00  0.00    +0.255 HD
ATOM     64 HH22 ARG A   5      49.056  29.977  31.623  0.00  0.00    +0.255 HD
ATOM     65  NH1 ARG A   5      52.157  30.932  31.640  0.00  0.00    -0.292 N 
ATOM     66 HH11 ARG A   5      52.010  31.958  31.725  0.00  0.00    +0.255 HD
ATOM     67 HH12 ARG A   5      53.122  30.548  31.587  0.00  0.00    +0.255 HD
ATOM     68  HE  ARG A   5      52.280  28.452  31.434  0.00  0.00    +0.259 HD
ENDBRANCH  59  60
ENDBRANCH  58  59
ENDBRANCH  57  58
ENDBRANCH  38  57
ENDBRANCH   2  38
TORSDOF 26
REMARK  Name = ../refined-set-2016/3g2k/3g2k_pocket.pdb
REMARK  270 active torsions:
REMARK  status: ('A' for Active; 'I' for Inactive)
REMARK    1  A    between atoms: _1  and  _3
REMARK    2  A    between atoms: _3  and  _4
REMARK    3  A    between atoms: _3  and  _6
REMARK    4  A    between atoms: _6  and  _7
REMARK    5  A    between atoms: _12  and  _13
REMARK    6  A    between atoms: _15  and  _17
REMARK    7  A    between atoms: _17  and  _18
REMARK    8  A    between atoms: _17  and  _20
REMARK    9  A    between atoms: _20  and  _21
REMARK   10  A    between atoms: _24  and  _26
REMARK   11  A    between atoms: _26  and  _27
REMARK   12  A    between atoms: _26  and  _29
REMARK   13  A    between atoms: _29  and  _30
REMARK   14  A    between atoms: _30  and  _31
REMARK   15  A    between atoms: _34  and  _36
REMARK   16  A    between atoms: _36  and  _37
REMARK   17  A    between atoms: _36  and  _39
REMARK   18  A    between atoms: _39  and  _40
REMARK   19  A    between atoms: _45  and  _47
REMARK   20  A    between atoms: _47  and  _48
REMARK   21  A    between atoms: _50  and  _52
REMARK   22  A    between atoms: _52  and  _53
REMARK   23  A    between atoms: _55  and  _57
REMARK   24  A    between atoms: _57  and  _58
REMARK   25  A    between atoms: _57  and  _60
REMARK   26  A    between atoms: _60  and  _61
REMARK   27  A    between atoms: _64  and  _66
REMARK   28  A    between atoms: _66  and  _67
REMARK   29  A    between atoms: _69  and  _71
REMARK   30  A    between atoms: _71  and  _72
REMARK   31  A    between atoms: _71  and  _74
REMARK   32  A    between atoms: _74  and  _75
REMARK   33  A    between atoms: _75  and  _76
REMARK   34  A    between atoms: _76  and  _77
REMARK   35  A    between atoms: _86  and  _88
REMARK   36  A    between atoms: _88  and  _89
REMARK   37  A    between atoms: _88  and  _91
REMARK   38  A    between atoms: _91  and  _92
REMARK   39  A    between atoms: _95  and  _97
REMARK   40  A    between atoms: _97  and  _98
REMARK   41  A    between atoms: _101  and  _103
REMARK   42  A    between atoms: _103  and  _104
REMARK   43  A    between atoms: _103  and  _106
REMARK   44  A    between atoms: _106  and  _107
REMARK   45  A    between atoms: _113  and  _115
REMARK   46  A    between atoms: _115  and  _116
REMARK   47  A    between atoms: _115  and  _118
REMARK   48  A    between atoms: _118  and  _119
REMARK   49  A    between atoms: _124  and  _125
REMARK   50  A    between atoms: _128  and  _129
REMARK   51  A    between atoms: _134  and  _136
REMARK   52  A    between atoms: _136  and  _137
REMARK   53  A    between atoms: _136  and  _139
REMARK   54  A    between atoms: _139  and  _140
REMARK   55  A    between atoms: _145  and  _147
REMARK   56  A    between atoms: _147  and  _148
REMARK   57  A    between atoms: _147  and  _150
REMARK   58  A    between atoms: _150  and  _151
REMARK   59  A    between atoms: _154  and  _156
REMARK   60  A    between atoms: _156  and  _157
REMARK   61  A    between atoms: _156  and  _159
REMARK   62  A    between atoms: _159  and  _160
REMARK   63  A    between atoms: _165  and  _167
REMARK   64  A    between atoms: _167  and  _168
REMARK   65  A    between atoms: _167  and  _170
REMARK   66  A    between atoms: _170  and  _171
REMARK   67  A    between atoms: _177  and  _179
REMARK   68  A    between atoms: _179  and  _180
REMARK   69  A    between atoms: _179  and  _182
REMARK   70  A    between atoms: _182  and  _183
REMARK   71  A    between atoms: _189  and  _191
REMARK   72  A    between atoms: _191  and  _192
REMARK   73  A    between atoms: _191  and  _194
REMARK   74  A    between atoms: _194  and  _195
REMARK   75  A    between atoms: _195  and  _196
REMARK   76  A    between atoms: _199  and  _201
REMARK   77  A    between atoms: _201  and  _202
REMARK   78  A    between atoms: _201  and  _204
REMARK   79  A    between atoms: _204  and  _205
REMARK   80  A    between atoms: _205  and  _206
REMARK   81  A    between atoms: _206  and  _207
REMARK   82  A    between atoms: _216  and  _218
REMARK   83  A    between atoms: _218  and  _219
REMARK   84  A    between atoms: _218  and  _221
REMARK   85  A    between atoms: _221  and  _222
REMARK   86  A    between atoms: _222  and  _223
REMARK   87  A    between atoms: _226  and  _228
REMARK   88  A    between atoms: _228  and  _229
REMARK   89  A    between atoms: _228  and  _231
REMARK   90  A    between atoms: _231  and  _232
REMARK   91  A    between atoms: _237  and  _239
REMARK   92  A    between atoms: _239  and  _240
REMARK   93  A    between atoms: _239  and  _242
REMARK   94  A    between atoms: _242  and  _243
REMARK   95  A    between atoms: _246  and  _248
REMARK   96  A    between atoms: _248  and  _249
REMARK   97  A    between atoms: _248  and  _251
REMARK   98  A    between atoms: _251  and  _252
REMARK   99  A    between atoms: _255  and  _257
REMARK  100  A    between atoms: _257  and  _258
REMARK  101  A    between atoms: _257  and  _260
REMARK  102  A    between atoms: _260  and  _261
REMARK  103  A    between atoms: _266  and  _268
REMARK  104  A    between atoms: _268  and  _269
REMARK  105  A    between atoms: _268  and  _271
REMARK  106  A    between atoms: _271  and  _272
REMARK  107  A    between atoms: _277  and  _278
REMARK  108  A    between atoms: _280  and  _282
REMARK  109  A    between atoms: _282  and  _283
REMARK  110  A    between atoms: _282  and  _285
REMARK  111  A    between atoms: _285  and  _286
REMARK  112  A    between atoms: _289  and  _291
REMARK  113  A    between atoms: _291  and  _292
REMARK  114  A    between atoms: _291  and  _294
REMARK  115  A    between atoms: _294  and  _295
REMARK  116  A    between atoms: _300  and  _302
REMARK  117  A    between atoms: _302  and  _303
REMARK  118  A    between atoms: _302  and  _305
REMARK  119  A    between atoms: _305  and  _306
REMARK  120  A    between atoms: _311  and  _313
REMARK  121  A    between atoms: _313  and  _314
REMARK  122  A    between atoms: _313  and  _316
REMARK  123  A    between atoms: _316  and  _317
REMARK  124  A    between atoms: _320  and  _322
REMARK  125  A    between atoms: _322  and  _323
REMARK  126  A    between atoms: _322  and  _325
REMARK  127  A    between atoms: _328  and  _330
REMARK  128  A    between atoms: _330  and  _331
REMARK  129  A    between atoms: _330  and  _333
REMARK  130  A    between atoms: _333  and  _334
REMARK  131  A    between atoms: _337  and  _339
REMARK  132  A    between atoms: _339  and  _340
REMARK  133  A    between atoms: _339  and  _342
REMARK  134  A    between atoms: _342  and  _343
REMARK  135  A    between atoms: _343  and  _344
REMARK  136  A    between atoms: _347  and  _349
REMARK  137  A    between atoms: _349  and  _350
REMARK  138  A    between atoms: _353  and  _355
REMARK  139  A    between atoms: _355  and  _356
REMARK  140  A    between atoms: _355  and  _358
REMARK  141  A    between atoms: _358  and  _359
REMARK  142  A    between atoms: _362  and  _364
REMARK  143  A    between atoms: _364  and  _365
REMARK  144  A    between atoms: _364  and  _367
REMARK  145  A    between atoms: _367  and  _368
REMARK  146  A    between atoms: _368  and  _369
REMARK  147  A    between atoms: _372  and  _374
REMARK  148  A    between atoms: _374  and  _375
REMARK  149  A    between atoms: _374  and  _377
REMARK  150  A    between atoms: _377  and  _378
REMARK  151  A    between atoms: _378  and  _379
REMARK  152  A    between atoms: _379  and  _380
REMARK  153  A    between atoms: _389  and  _391
REMARK  154  A    between atoms: _391  and  _392
REMARK  155  A    between atoms: _391  and  _394
REMARK  156  A    between atoms: _394  and  _395
REMARK  157  A    between atoms: _405  and  _407
REMARK  158  A    between atoms: _407  and  _408
REMARK  159  A    between atoms: _407  and  _410
REMARK  160  A    between atoms: _410  and  _411
REMARK  161  A    between atoms: _416  and  _418
REMARK  162  A    between atoms: _418  and  _419
REMARK  163  A    between atoms: _421  and  _423
REMARK  164  A    between atoms: _423  and  _424
REMARK  165  A    between atoms: _423  and  _426
REMARK  166  A    between atoms: _429  and  _431
REMARK  167  A    between atoms: _431  and  _432
REMARK  168  A    between atoms: _435  and  _437
REMARK  169  A    between atoms: _437  and  _438
REMARK  170  A    between atoms: _437  and  _440
REMARK  171  A    between atoms: _440  and  _441
REMARK  172  A    between atoms: _446  and  _448
REMARK  173  A    between atoms: _448  and  _449
REMARK  174  A    between atoms: _448  and  _451
REMARK  175  A    between atoms: _451  and  _452
REMARK  176  A    between atoms: _452  and  _453
REMARK  177  A    between atoms: _453  and  _454
REMARK  178  A    between atoms: _454  and  _455
REMARK  179  A    between atoms: _459  and  _461
REMARK  180  A    between atoms: _461  and  _462
REMARK  181  A    between atoms: _461  and  _464
REMARK  182  A    between atoms: _464  and  _465
REMARK  183  A    between atoms: _470  and  _472
REMARK  184  A    between atoms: _472  and  _473
REMARK  185  A    between atoms: _475  and  _477
REMARK  186  A    between atoms: _477  and  _478
REMARK  187  A    between atoms: _477  and  _480
REMARK  188  A    between atoms: _480  and  _481
REMARK  189  A    between atoms: _481  and  _482
REMARK  190  A    between atoms: _482  and  _483
REMARK  191  A    between atoms: _483  and  _484
REMARK  192  A    between atoms: _488  and  _490
REMARK  193  A    between atoms: _490  and  _491
REMARK  194  A    between atoms: _490  and  _493
REMARK  195  A    between atoms: _493  and  _494
REMARK  196  A    between atoms: _494  and  _495
REMARK  197  A    between atoms: _495  and  _496
REMARK  198  A    between atoms: _505  and  _507
REMARK  199  A    between atoms: _507  and  _508
REMARK  200  A    between atoms: _507  and  _510
REMARK  201  A    between atoms: _510  and  _511
REMARK  202  A    between atoms: _516  and  _517
REMARK  203  A    between atoms: _519  and  _521
REMARK  204  A    between atoms: _521  and  _522
REMARK  205  A    between atoms: _521  and  _524
REMARK  206  A    between atoms: _524  and  _525
REMARK  207  A    between atoms: _525  and  _526
REMARK  208  A    between atoms: _526  and  _527
REMARK  209  A    between atoms: _527  and  _528
REMARK  210  A    between atoms: _532  and  _534
REMARK  211  A    between atoms: _534  and  _535
REMARK  212  A    between atoms: _534  and  _537
REMARK  213  A    between atoms: _537  and  _538
REMARK  214  A    between atoms: _540  and  _542
REMARK  215  A    between atoms: _542  and  _543
REMARK  216  A    between atoms: _542  and  _545
REMARK  217  A    between atoms: _545  and  _546
REMARK  218  A    between atoms: _549  and  _551
REMARK  219  A    between atoms: _551  and  _552
REMARK  220  A    between atoms: _551  and  _554
REMARK  221  A    between atoms: _554  and  _555
REMARK  222  A    between atoms: _555  and  _556
REMARK  223  A    between atoms: _559  and  _561
REMARK  224  A    between atoms: _561  and  _562
REMARK  225  A    between atoms: _565  and  _567
REMARK  226  A    between atoms: _567  and  _568
REMARK  227  A    between atoms: _567  and  _570
REMARK  228  A    between atoms: _570  and  _571
REMARK  229  A    between atoms: _573  and  _575
REMARK  230  A    between atoms: _575  and  _576
REMARK  231  A    between atoms: _578  and  _580
REMARK  232  A    between atoms: _580  and  _581
REMARK  233  A    between atoms: _580  and  _583
REMARK  234  A    between atoms: _583  and  _584
REMARK  235  A    between atoms: _587  and  _589
REMARK  236  A    between atoms: _589  and  _590
REMARK  237  A    between atoms: _592  and  _594
REMARK  238  A    between atoms: _594  and  _595
REMARK  239  A    between atoms: _594  and  _597
REMARK  240  A    between atoms: _597  and  _598
REMARK  241  A    between atoms: _603  and  _605
REMARK  242  A    between atoms: _605  and  _606
REMARK  243  A    between atoms: _605  and  _608
REMARK  244  A    between atoms: _608  and  _609
REMARK  245  A    between atoms: _609  and  _610
REMARK  246  A    between atoms: _617  and  _618
REMARK  247  A    between atoms: _618  and  _634
REMARK  248  A    between atoms: _619  and  _621
REMARK  249  A    between atoms: _621  and  _622
REMARK  250  A    between atoms: _622  and  _623
REMARK  251  A    between atoms: _627  and  _629
REMARK  252  A    between atoms: _629  and  _630
REMARK  253  A    between atoms: _629  and  _637
REMARK  254  A    between atoms: _630  and  _631
REMARK  255  A    between atoms: _631  and  _632
REMARK  256  A    between atoms: _632  and  _633
REMARK  257  A    between atoms: _633  and  _634
REMARK  258  A    between atoms: _639  and  _641
REMARK  259  A    between atoms: _641  and  _642
REMARK  260  A    between atoms: _641  and  _644
REMARK  261  A    between atoms: _644  and  _645
REMARK  262  A    between atoms: _648  and  _650
REMARK  263  A    between atoms: _650  and  _651
REMARK  264  A    between atoms: _653  and  _655
REMARK  265  A    between atoms: _655  and  _656
REMARK  266  A    between atoms: _659  and  _661
REMARK  267  A    between atoms: _661  and  _662
REMARK  268  A    between atoms: _661  and  _664
REMARK  269  A    between atoms: _664  and  _665
REMARK  270  A    between atoms: _670  and  _671
REMARK                            x       y       z     vdW  Elec       q    Type
REMARK                         _______ _______ _______ _____ _____    ______ ____
ROOT
ATOM      1  C   GLY A   2      37.898  14.584  23.629  0.00  0.00    +0.243 C 
ATOM      2  O   GLY A   2      37.547  13.407  23.747  0.00  0.00    -0.273 OA
ATOM      3  N   VAL A   3      37.041  15.568  23.395  0.00  0.00    -0.297 N 
ATOM      4  H   VAL A   3      37.396  16.483  23.050  0.00  0.00    +0.150 HD
ENDROOT
BRANCH   1   5
ATOM      5  CA  GLY A   2      39.365  14.971  23.713  0.00  0.00    +0.176 C 
BRANCH   5   8
ATOM      6  C   ASN A   1      40.475  13.461  25.284  0.00  0.00    +0.239 C 
ATOM      7  O   ASN A   1      40.409  14.243  26.236  0.00  0.00    -0.274 OA
ATOM      8  N   GLY A   2      40.138  13.781  24.037  0.00  0.00    -0.296 N 
ATOM      9  H   GLY A   2      40.439  13.155  23.263  0.00  0.00    +0.150 HD
BRANCH   6  10
ATOM     10  CA  ASN A   1      40.990  12.045  25.467  0.00  0.00    +0.154 C 
BRANCH  10  11
ATOM     11  N   ASN A   1      42.009  11.906  26.496  0.00  0.00    -0.238 NA
ATOM     12  H   ASN A   1      41.856  12.314  27.440  0.00  0.00    +0.142 HD
ENDBRANCH  10  11
BRANCH  10  13
ATOM     13  CB  ASN A   1      39.829  11.049  25.676  0.00  0.00    +0.111 C 
BRANCH  13  14
ATOM     14  CG  ASN A   1      38.862  11.481  26.771  0.00  0.00    +0.221 C 
ATOM     15  OD1 ASN A   1      39.130  11.304  27.957  0.00  0.00    -0.275 OA
ATOM     16  ND2 ASN A   1      37.721  12.026  26.371  0.00  0.00    -0.329 N 
ATOM     17 HD21 ASN A   1      37.012  12.322  27.072  0.00  0.00    +0.145 HD
ATOM     18 HD22 ASN A   1      37.535  12.157  25.356  0.00  0.00    +0.145 HD
ENDBRANCH  13  14
ENDBRANCH  10  13
ENDBRANCH   6  10
ENDBRANCH   5   8
ENDBRANCH   1   5
BRANCH   3  19
ATOM     19  CA  VAL A   3      35.602  15.391  23.613  0.00  0.00    +0.149 C 
BRANCH  19  20
ATOM     20  C   VAL A   3      34.762  15.467  22.334  0.00  0.00    +0.241 C 
ATOM     21  O   VAL A   3      33.530  15.472  22.384  0.00  0.00    -0.273 OA
ATOM     22  N   ALA A   4      35.453  15.511  21.196  0.00  0.00    -0.298 N 
ATOM     23  H   ALA A   4      36.485  15.627  21.253  0.00  0.00    +0.150 HD
BRANCH  22  24
ATOM     24  CA  ALA A   4      34.844  15.405  19.871  0.00  0.00    +0.137 C 
ATOM     25  CB  ALA A   4      34.106  16.684  19.502  0.00  0.00    +0.030 C 
BRANCH  24  26
ATOM     26  C   ALA A   4      35.968  15.134  18.881  0.00  0.00    +0.227 C 
ATOM     27  O   ALA A   4      37.115  15.509  19.129  0.00  0.00    -0.286 OA
ENDBRANCH  24  26
ENDBRANCH  22  24
ENDBRANCH  19  20
BRANCH  19  28
ATOM     28  CB  VAL A   3      35.087  16.352  24.715  0.00  0.00    +0.027 C 
ATOM     29  CG2 VAL A   3      35.597  15.894  26.078  0.00  0.00    +0.002 C 
ATOM     30  CG1 VAL A   3      35.524  17.798  24.438  0.00  0.00    +0.002 C 
ENDBRANCH  19  28
ENDBRANCH   3  19
TORSDOF 11
REMARK  Name = ../refined-set-2016/3g2k/3g2k_pocket.pdb
REMARK  270 active torsions:
REMARK  status: ('A' for Active; 'I' for Inactive)
REMARK    1  A    between atoms: _1  and  _3
REMARK    2  A    between atoms: _3  and  _4
REMARK    3  A    between atoms: _3  and  _6
REMARK    4  A    between atoms: _6  and  _7
REMARK    5  A    between atoms: _12  and  _13
REMARK    6  A    between atoms: _15  and  _17
REMARK    7  A    between atoms: _17  and  _18
REMARK    8  A    between atoms: _17  and  _20
REMARK    9  A    between atoms: _20  and  _21
REMARK   10  A    between atoms: _24  and  _26
REMARK   11  A    between atoms: _26  and  _27
REMARK   12  A    between atoms: _26  and  _29
REMARK   13  A    between atoms: _29  and  _30
REMARK   14  A    between atoms: _30  and  _31
REMARK   15  A    between atoms: _34  and  _36
REMARK   16  A    between atoms: _36  and  _37
REMARK   17  A    between atoms: _36  and  _39
REMARK   18  A    between atoms: _39  and  _40
REMARK   19  A    between atoms: _45  and  _47
REMARK   20  A    between atoms: _47  and  _48
REMARK   21  A    between atoms: _50  and  _52
REMARK   22  A    between atoms: _52  and  _53
REMARK   23  A    between atoms: _55  and  _57
REMARK   24  A    between atoms: _57  and  _58
REMARK   25  A    between atoms: _57  and  _60
REMARK   26  A    between atoms: _60  and  _61
REMARK   27  A    between atoms: _64  and  _66
REMARK   28  A    between atoms: _66  and  _67
REMARK   29  A    between atoms: _69  and  _71
REMARK   30  A    between atoms: _71  and  _72
REMARK   31  A    between atoms: _71  and  _74
REMARK   32  A    between atoms: _74  and  _75
REMARK   33  A    between atoms: _75  and  _76
REMARK   34  A    between atoms: _76  and  _77
REMARK   35  A    between atoms: _86  and  _88
REMARK   36  A    between atoms: _88  and  _89
REMARK   37  A    between atoms: _88  and  _91
REMARK   38  A    between atoms: _91  and  _92
REMARK   39  A    between atoms: _95  and  _97
REMARK   40  A    between atoms: _97  and  _98
REMARK   41  A    between atoms: _101  and  _103
REMARK   42  A    between atoms: _103  and  _104
REMARK   43  A    between atoms: _103  and  _106
REMARK   44  A    between atoms: _106  and  _107
REMARK   45  A    between atoms: _113  and  _115
REMARK   46  A    between atoms: _115  and  _116
REMARK   47  A    between atoms: _115  and  _118
REMARK   48  A    between atoms: _118  and  _119
REMARK   49  A    between atoms: _124  and  _125
REMARK   50  A    between atoms: _128  and  _129
REMARK   51  A    between atoms: _134  and  _136
REMARK   52  A    between atoms: _136  and  _137
REMARK   53  A    between atoms: _136  and  _139
REMARK   54  A    between atoms: _139  and  _140
REMARK   55  A    between atoms: _145  and  _147
REMARK   56  A    between atoms: _147  and  _148
REMARK   57  A    between atoms: _147  and  _150
REMARK   58  A    between atoms: _150  and  _151
REMARK   59  A    between atoms: _154  and  _156
REMARK   60  A    between atoms: _156  and  _157
REMARK   61  A    between atoms: _156  and  _159
REMARK   62  A    between atoms: _159  and  _160
REMARK   63  A    between atoms: _165  and  _167
REMARK   64  A    between atoms: _167  and  _168
REMARK   65  A    between atoms: _167  and  _170
REMARK   66  A    between atoms: _170  and  _171
REMARK   67  A    between atoms: _177  and  _179
REMARK   68  A    between atoms: _179  and  _180
REMARK   69  A    between atoms: _179  and  _182
REMARK   70  A    between atoms: _182  and  _183
REMARK   71  A    between atoms: _189  and  _191
REMARK   72  A    between atoms: _191  and  _192
REMARK   73  A    between atoms: _191  and  _194
REMARK   74  A    between atoms: _194  and  _195
REMARK   75  A    between atoms: _195  and  _196
REMARK   76  A    between atoms: _199  and  _201
REMARK   77  A    between atoms: _201  and  _202
REMARK   78  A    between atoms: _201  and  _204
REMARK   79  A    between atoms: _204  and  _205
REMARK   80  A    between atoms: _205  and  _206
REMARK   81  A    between atoms: _206  and  _207
REMARK   82  A    between atoms: _216  and  _218
REMARK   83  A    between atoms: _218  and  _219
REMARK   84  A    between atoms: _218  and  _221
REMARK   85  A    between atoms: _221  and  _222
REMARK   86  A    between atoms: _222  and  _223
REMARK   87  A    between atoms: _226  and  _228
REMARK   88  A    between atoms: _228  and  _229
REMARK   89  A    between atoms: _228  and  _231
REMARK   90  A    between atoms: _231  and  _232
REMARK   91  A    between atoms: _237  and  _239
REMARK   92  A    between atoms: _239  and  _240
REMARK   93  A    between atoms: _239  and  _242
REMARK   94  A    between atoms: _242  and  _243
REMARK   95  A    between atoms: _246  and  _248
REMARK   96  A    between atoms: _248  and  _249
REMARK   97  A    between atoms: _248  and  _251
REMARK   98  A    between atoms: _251  and  _252
REMARK   99  A    between atoms: _255  and  _257
REMARK  100  A    between atoms: _257  and  _258
REMARK  101  A    between atoms: _257  and  _260
REMARK  102  A    between atoms: _260  and  _261
REMARK  103  A    between atoms: _266  and  _268
REMARK  104  A    between atoms: _268  and  _269
REMARK  105  A    between atoms: _268  and  _271
REMARK  106  A    between atoms: _271  and  _272
REMARK  107  A    between atoms: _277  and  _278
REMARK  108  A    between atoms: _280  and  _282
REMARK  109  A    between atoms: _282  and  _283
REMARK  110  A    between atoms: _282  and  _285
REMARK  111  A    between atoms: _285  and  _286
REMARK  112  A    between atoms: _289  and  _291
REMARK  113  A    between atoms: _291  and  _292
REMARK  114  A    between atoms: _291  and  _294
REMARK  115  A    between atoms: _294  and  _295
REMARK  116  A    between atoms: _300  and  _302
REMARK  117  A    between atoms: _302  and  _303
REMARK  118  A    between atoms: _302  and  _305
REMARK  119  A    between atoms: _305  and  _306
REMARK  120  A    between atoms: _311  and  _313
REMARK  121  A    between atoms: _313  and  _314
REMARK  122  A    between atoms: _313  and  _316
REMARK  123  A    between atoms: _316  and  _317
REMARK  124  A    between atoms: _320  and  _322
REMARK  125  A    between atoms: _322  and  _323
REMARK  126  A    between atoms: _322  and  _325
REMARK  127  A    between atoms: _328  and  _330
REMARK  128  A    between atoms: _330  and  _331
REMARK  129  A    between atoms: _330  and  _333
REMARK  130  A    between atoms: _333  and  _334
REMARK  131  A    between atoms: _337  and  _339
REMARK  132  A    between atoms: _339  and  _340
REMARK  133  A    between atoms: _339  and  _342
REMARK  134  A    between atoms: _342  and  _343
REMARK  135  A    between atoms: _343  and  _344
REMARK  136  A    between atoms: _347  and  _349
REMARK  137  A    between atoms: _349  and  _350
REMARK  138  A    between atoms: _353  and  _355
REMARK  139  A    between atoms: _355  and  _356
REMARK  140  A    between atoms: _355  and  _358
REMARK  141  A    between atoms: _358  and  _359
REMARK  142  A    between atoms: _362  and  _364
REMARK  143  A    between atoms: _364  and  _365
REMARK  144  A    between atoms: _364  and  _367
REMARK  145  A    between atoms: _367  and  _368
REMARK  146  A    between atoms: _368  and  _369
REMARK  147  A    between atoms: _372  and  _374
REMARK  148  A    between atoms: _374  and  _375
REMARK  149  A    between atoms: _374  and  _377
REMARK  150  A    between atoms: _377  and  _378
REMARK  151  A    between atoms: _378  and  _379
REMARK  152  A    between atoms: _379  and  _380
REMARK  153  A    between atoms: _389  and  _391
REMARK  154  A    between atoms: _391  and  _392
REMARK  155  A    between atoms: _391  and  _394
REMARK  156  A    between atoms: _394  and  _395
REMARK  157  A    between atoms: _405  and  _407
REMARK  158  A    between atoms: _407  and  _408
REMARK  159  A    between atoms: _407  and  _410
REMARK  160  A    between atoms: _410  and  _411
REMARK  161  A    between atoms: _416  and  _418
REMARK  162  A    between atoms: _418  and  _419
REMARK  163  A    between atoms: _421  and  _423
REMARK  164  A    between atoms: _423  and  _424
REMARK  165  A    between atoms: _423  and  _426
REMARK  166  A    between atoms: _429  and  _431
REMARK  167  A    between atoms: _431  and  _432
REMARK  168  A    between atoms: _435  and  _437
REMARK  169  A    between atoms: _437  and  _438
REMARK  170  A    between atoms: _437  and  _440
REMARK  171  A    between atoms: _440  and  _441
REMARK  172  A    between atoms: _446  and  _448
REMARK  173  A    between atoms: _448  and  _449
REMARK  174  A    between atoms: _448  and  _451
REMARK  175  A    between atoms: _451  and  _452
REMARK  176  A    between atoms: _452  and  _453
REMARK  177  A    between atoms: _453  and  _454
REMARK  178  A    between atoms: _454  and  _455
REMARK  179  A    between atoms: _459  and  _461
REMARK  180  A    between atoms: _461  and  _462
REMARK  181  A    between atoms: _461  and  _464
REMARK  182  A    between atoms: _464  and  _465
REMARK  183  A    between atoms: _470  and  _472
REMARK  184  A    between atoms: _472  and  _473
REMARK  185  A    between atoms: _475  and  _477
REMARK  186  A    between atoms: _477  and  _478
REMARK  187  A    between atoms: _477  and  _480
REMARK  188  A    between atoms: _480  and  _481
REMARK  189  A    between atoms: _481  and  _482
REMARK  190  A    between atoms: _482  and  _483
REMARK  191  A    between atoms: _483  and  _484
REMARK  192  A    between atoms: _488  and  _490
REMARK  193  A    between atoms: _490  and  _491
REMARK  194  A    between atoms: _490  and  _493
REMARK  195  A    between atoms: _493  and  _494
REMARK  196  A    between atoms: _494  and  _495
REMARK  197  A    between atoms: _495  and  _496
REMARK  198  A    between atoms: _505  and  _507
REMARK  199  A    between atoms: _507  and  _508
REMARK  200  A    between atoms: _507  and  _510
REMARK  201  A    between atoms: _510  and  _511
REMARK  202  A    between atoms: _516  and  _517
REMARK  203  A    between atoms: _519  and  _521
REMARK  204  A    between atoms: _521  and  _522
REMARK  205  A    between atoms: _521  and  _524
REMARK  206  A    between atoms: _524  and  _525
REMARK  207  A    between atoms: _525  and  _526
REMARK  208  A    between atoms: _526  and  _527
REMARK  209  A    between atoms: _527  and  _528
REMARK  210  A    between atoms: _532  and  _534
REMARK  211  A    between atoms: _534  and  _535
REMARK  212  A    between atoms: _534  and  _537
REMARK  213  A    between atoms: _537  and  _538
REMARK  214  A    between atoms: _540  and  _542
REMARK  215  A    between atoms: _542  and  _543
REMARK  216  A    between atoms: _542  and  _545
REMARK  217  A    between atoms: _545  and  _546
REMARK  218  A    between atoms: _549  and  _551
REMARK  219  A    between atoms: _551  and  _552
REMARK  220  A    between atoms: _551  and  _554
REMARK  221  A    between atoms: _554  and  _555
REMARK  222  A    between atoms: _555  and  _556
REMARK  223  A    between atoms: _559  and  _561
REMARK  224  A    between atoms: _561  and  _562
REMARK  225  A    between atoms: _565  and  _567
REMARK  226  A    between atoms: _567  and  _568
REMARK  227  A    between atoms: _567  and  _570
REMARK  228  A    between atoms: _570  and  _571
REMARK  229  A    between atoms: _573  and  _575
REMARK  230  A    between atoms: _575  and  _576
REMARK  231  A    between atoms: _578  and  _580
REMARK  232  A    between atoms: _580  and  _581
REMARK  233  A    between atoms: _580  and  _583
REMARK  234  A    between atoms: _583  and  _584
REMARK  235  A    between atoms: _587  and  _589
REMARK  236  A    between atoms: _589  and  _590
REMARK  237  A    between atoms: _592  and  _594
REMARK  238  A    between atoms: _594  and  _595
REMARK  239  A    between atoms: _594  and  _597
REMARK  240  A    between atoms: _597  and  _598
REMARK  241  A    between atoms: _603  and  _605
REMARK  242  A    between atoms: _605  and  _606
REMARK  243  A    between atoms: _605  and  _608
REMARK  244  A    between atoms: _608  and  _609
REMARK  245  A    between atoms: _609  and  _610
REMARK  246  A    between atoms: _617  and  _618
REMARK  247  A    between atoms: _618  and  _634
REMARK  248  A    between atoms: _619  and  _621
REMARK  249  A    between atoms: _621  and  _622
REMARK  250  A    between atoms: _622  and  _623
REMARK  251  A    between atoms: _627  and  _629
REMARK  252  A    between atoms: _629  and  _630
REMARK  253  A    between atoms: _629  and  _637
REMARK  254  A    between atoms: _630  and  _631
REMARK  255  A    between atoms: _631  and  _632
REMARK  256  A    between atoms: _632  and  _633
REMARK  257  A    between atoms: _633  and  _634
REMARK  258  A    between atoms: _639  and  _641
REMARK  259  A    between atoms: _641  and  _642
REMARK  260  A    between atoms: _641  and  _644
REMARK  261  A    between atoms: _644  and  _645
REMARK  262  A    between atoms: _648  and  _650
REMARK  263  A    between atoms: _650  and  _651
REMARK  264  A    between atoms: _653  and  _655
REMARK  265  A    between atoms: _655  and  _656
REMARK  266  A    between atoms: _659  and  _661
REMARK  267  A    between atoms: _661  and  _662
REMARK  268  A    between atoms: _661  and  _664
REMARK  269  A    between atoms: _664  and  _665
REMARK  270  A    between atoms: _670  and  _671
REMARK                            x       y       z     vdW  Elec       q    Type
REMARK                         _______ _______ _______ _____ _____    ______ ____
ROOT
ATOM      1  CB  HIS A   1      38.077  18.562  20.212  0.00  0.00    +0.072 C 
ENDROOT
BRANCH   1   2
ATOM      2  CG  HIS A   1      38.749  18.789  21.529  0.00  0.00    +0.082 A 
ATOM      3  CD2 HIS A   1      38.683  18.100  22.690  0.00  0.00    +0.115 A 
ATOM      4  NE2 HIS A   1      39.496  18.743  23.591  0.00  0.00    -0.221 NA
ATOM      5  CE1 HIS A   1      40.035  19.797  23.006  0.00  0.00    +0.199 A 
ATOM      6  ND1 HIS A   1      39.595  19.852  21.762  0.00  0.00    -0.227 NA
ENDBRANCH   1   2
BRANCH   1   7
ATOM      7  CA  HIS A   1      39.044  18.408  19.033  0.00  0.00    +0.139 C 
BRANCH   7   8
ATOM      8  N   HIS A   1      38.327  17.926  17.863  0.00  0.00    -0.239 NA
ATOM      9  H   HIS A   1      37.352  17.585  17.984  0.00  0.00    +0.142 HD
ENDBRANCH   7   8
BRANCH   7  10
ATOM     10  C   HIS A   1      40.198  17.465  19.372  0.00  0.00    +0.224 C 
ATOM     11  O   HIS A   1      41.320  17.910  19.587  0.00  0.00    -0.287 OA
ENDBRANCH   7  10
ENDBRANCH   1   7
TORSDOF 4
REMARK  Name = ../refined-set-2016/3g2k/3g2k_pocket.pdb
REMARK  270 active torsions:
REMARK  status: ('A' for Active; 'I' for Inactive)
REMARK    1  A    between atoms: _1  and  _3
REMARK    2  A    between atoms: _3  and  _4
REMARK    3  A    between atoms: _3  and  _6
REMARK    4  A    between atoms: _6  and  _7
REMARK    5  A    between atoms: _12  and  _13
REMARK    6  A    between atoms: _15  and  _17
REMARK    7  A    between atoms: _17  and  _18
REMARK    8  A    between atoms: _17  and  _20
REMARK    9  A    between atoms: _20  and  _21
REMARK   10  A    between atoms: _24  and  _26
REMARK   11  A    between atoms: _26  and  _27
REMARK   12  A    between atoms: _26  and  _29
REMARK   13  A    between atoms: _29  and  _30
REMARK   14  A    between atoms: _30  and  _31
REMARK   15  A    between atoms: _34  and  _36
REMARK   16  A    between atoms: _36  and  _37
REMARK   17  A    between atoms: _36  and  _39
REMARK   18  A    between atoms: _39  and  _40
REMARK   19  A    between atoms: _45  and  _47
REMARK   20  A    between atoms: _47  and  _48
REMARK   21  A    between atoms: _50  and  _52
REMARK   22  A    between atoms: _52  and  _53
REMARK   23  A    between atoms: _55  and  _57
REMARK   24  A    between atoms: _57  and  _58
REMARK   25  A    between atoms: _57  and  _60
REMARK   26  A    between atoms: _60  and  _61
REMARK   27  A    between atoms: _64  and  _66
REMARK   28  A    between atoms: _66  and  _67
REMARK   29  A    between atoms: _69  and  _71
REMARK   30  A    between atoms: _71  and  _72
REMARK   31  A    between atoms: _71  and  _74
REMARK   32  A    between atoms: _74  and  _75
REMARK   33  A    between atoms: _75  and  _76
REMARK   34  A    between atoms: _76  and  _77
REMARK   35  A    between atoms: _86  and  _88
REMARK   36  A    between atoms: _88  and  _89
REMARK   37  A    between atoms: _88  and  _91
REMARK   38  A    between atoms: _91  and  _92
REMARK   39  A    between atoms: _95  and  _97
REMARK   40  A    between atoms: _97  and  _98
REMARK   41  A    between atoms: _101  and  _103
REMARK   42  A    between atoms: _103  and  _104
REMARK   43  A    between atoms: _103  and  _106
REMARK   44  A    between atoms: _106  and  _107
REMARK   45  A    between atoms: _113  and  _115
REMARK   46  A    between atoms: _115  and  _116
REMARK   47  A    between atoms: _115  and  _118
REMARK   48  A    between atoms: _118  and  _119
REMARK   49  A    between atoms: _124  and  _125
REMARK   50  A    between atoms: _128  and  _129
REMARK   51  A    between atoms: _134  and  _136
REMARK   52  A    between atoms: _136  and  _137
REMARK   53  A    between atoms: _136  and  _139
REMARK   54  A    between atoms: _139  and  _140
REMARK   55  A    between atoms: _145  and  _147
REMARK   56  A    between atoms: _147  and  _148
REMARK   57  A    between atoms: _147  and  _150
REMARK   58  A    between atoms: _150  and  _151
REMARK   59  A    between atoms: _154  and  _156
REMARK   60  A    between atoms: _156  and  _157
REMARK   61  A    between atoms: _156  and  _159
REMARK   62  A    between atoms: _159  and  _160
REMARK   63  A    between atoms: _165  and  _167
REMARK   64  A    between atoms: _167  and  _168
REMARK   65  A    between atoms: _167  and  _170
REMARK   66  A    between atoms: _170  and  _171
REMARK   67  A    between atoms: _177  and  _179
REMARK   68  A    between atoms: _179  and  _180
REMARK   69  A    between atoms: _179  and  _182
REMARK   70  A    between atoms: _182  and  _183
REMARK   71  A    between atoms: _189  and  _191
REMARK   72  A    between atoms: _191  and  _192
REMARK   73  A    between atoms: _191  and  _194
REMARK   74  A    between atoms: _194  and  _195
REMARK   75  A    between atoms: _195  and  _196
REMARK   76  A    between atoms: _199  and  _201
REMARK   77  A    between atoms: _201  and  _202
REMARK   78  A    between atoms: _201  and  _204
REMARK   79  A    between atoms: _204  and  _205
REMARK   80  A    between atoms: _205  and  _206
REMARK   81  A    between atoms: _206  and  _207
REMARK   82  A    between atoms: _216  and  _218
REMARK   83  A    between atoms: _218  and  _219
REMARK   84  A    between atoms: _218  and  _221
REMARK   85  A    between atoms: _221  and  _222
REMARK   86  A    between atoms: _222  and  _223
REMARK   87  A    between atoms: _226  and  _228
REMARK   88  A    between atoms: _228  and  _229
REMARK   89  A    between atoms: _228  and  _231
REMARK   90  A    between atoms: _231  and  _232
REMARK   91  A    between atoms: _237  and  _239
REMARK   92  A    between atoms: _239  and  _240
REMARK   93  A    between atoms: _239  and  _242
REMARK   94  A    between atoms: _242  and  _243
REMARK   95  A    between atoms: _246  and  _248
REMARK   96  A    between atoms: _248  and  _249
REMARK   97  A    between atoms: _248  and  _251
REMARK   98  A    between atoms: _251  and  _252
REMARK   99  A    between atoms: _255  and  _257
REMARK  100  A    between atoms: _257  and  _258
REMARK  101  A    between atoms: _257  and  _260
REMARK  102  A    between atoms: _260  and  _261
REMARK  103  A    between atoms: _266  and  _268
REMARK  104  A    between atoms: _268  and  _269
REMARK  105  A    between atoms: _268  and  _271
REMARK  106  A    between atoms: _271  and  _272
REMARK  107  A    between atoms: _277  and  _278
REMARK  108  A    between atoms: _280  and  _282
REMARK  109  A    between atoms: _282  and  _283
REMARK  110  A    between atoms: _282  and  _285
REMARK  111  A    between atoms: _285  and  _286
REMARK  112  A    between atoms: _289  and  _291
REMARK  113  A    between atoms: _291  and  _292
REMARK  114  A    between atoms: _291  and  _294
REMARK  115  A    between atoms: _294  and  _295
REMARK  116  A    between atoms: _300  and  _302
REMARK  117  A    between atoms: _302  and  _303
REMARK  118  A    between atoms: _302  and  _305
REMARK  119  A    between atoms: _305  and  _306
REMARK  120  A    between atoms: _311  and  _313
REMARK  121  A    between atoms: _313  and  _314
REMARK  122  A    between atoms: _313  and  _316
REMARK  123  A    between atoms: _316  and  _317
REMARK  124  A    between atoms: _320  and  _322
REMARK  125  A    between atoms: _322  and  _323
REMARK  126  A    between atoms: _322  and  _325
REMARK  127  A    between atoms: _328  and  _330
REMARK  128  A    between atoms: _330  and  _331
REMARK  129  A    between atoms: _330  and  _333
REMARK  130  A    between atoms: _333  and  _334
REMARK  131  A    between atoms: _337  and  _339
REMARK  132  A    between atoms: _339  and  _340
REMARK  133  A    between atoms: _339  and  _342
REMARK  134  A    between atoms: _342  and  _343
REMARK  135  A    between atoms: _343  and  _344
REMARK  136  A    between atoms: _347  and  _349
REMARK  137  A    between atoms: _349  and  _350
REMARK  138  A    between atoms: _353  and  _355
REMARK  139  A    between atoms: _355  and  _356
REMARK  140  A    between atoms: _355  and  _358
REMARK  141  A    between atoms: _358  and  _359
REMARK  142  A    between atoms: _362  and  _364
REMARK  143  A    between atoms: _364  and  _365
REMARK  144  A    between atoms: _364  and  _367
REMARK  145  A    between atoms: _367  and  _368
REMARK  146  A    between atoms: _368  and  _369
REMARK  147  A    between atoms: _372  and  _374
REMARK  148  A    between atoms: _374  and  _375
REMARK  149  A    between atoms: _374  and  _377
REMARK  150  A    between atoms: _377  and  _378
REMARK  151  A    between atoms: _378  and  _379
REMARK  152  A    between atoms: _379  and  _380
REMARK  153  A    between atoms: _389  and  _391
REMARK  154  A    between atoms: _391  and  _392
REMARK  155  A    between atoms: _391  and  _394
REMARK  156  A    between atoms: _394  and  _395
REMARK  157  A    between atoms: _405  and  _407
REMARK  158  A    between atoms: _407  and  _408
REMARK  159  A    between atoms: _407  and  _410
REMARK  160  A    between atoms: _410  and  _411
REMARK  161  A    between atoms: _416  and  _418
REMARK  162  A    between atoms: _418  and  _419
REMARK  163  A    between atoms: _421  and  _423
REMARK  164  A    between atoms: _423  and  _424
REMARK  165  A    between atoms: _423  and  _426
REMARK  166  A    between atoms: _429  and  _431
REMARK  167  A    between atoms: _431  and  _432
REMARK  168  A    between atoms: _435  and  _437
REMARK  169  A    between atoms: _437  and  _438
REMARK  170  A    between atoms: _437  and  _440
REMARK  171  A    between atoms: _440  and  _441
REMARK  172  A    between atoms: _446  and  _448
REMARK  173  A    between atoms: _448  and  _449
REMARK  174  A    between atoms: _448  and  _451
REMARK  175  A    between atoms: _451  and  _452
REMARK  176  A    between atoms: _452  and  _453
REMARK  177  A    between atoms: _453  and  _454
REMARK  178  A    between atoms: _454  and  _455
REMARK  179  A    between atoms: _459  and  _461
REMARK  180  A    between atoms: _461  and  _462
REMARK  181  A    between atoms: _461  and  _464
REMARK  182  A    between atoms: _464  and  _465
REMARK  183  A    between atoms: _470  and  _472
REMARK  184  A    between atoms: _472  and  _473
REMARK  185  A    between atoms: _475  and  _477
REMARK  186  A    between atoms: _477  and  _478
REMARK  187  A    between atoms: _477  and  _480
REMARK  188  A    between atoms: _480  and  _481
REMARK  189  A    between atoms: _481  and  _482
REMARK  190  A    between atoms: _482  and  _483
REMARK  191  A    between atoms: _483  and  _484
REMARK  192  A    between atoms: _488  and  _490
REMARK  193  A    between atoms: _490  and  _491
REMARK  194  A    between atoms: _490  and  _493
REMARK  195  A    between atoms: _493  and  _494
REMARK  196  A    between atoms: _494  and  _495
REMARK  197  A    between atoms: _495  and  _496
REMARK  198  A    between atoms: _505  and  _507
REMARK  199  A    between atoms: _507  and  _508
REMARK  200  A    between atoms: _507  and  _510
REMARK  201  A    between atoms: _510  and  _511
REMARK  202  A    between atoms: _516  and  _517
REMARK  203  A    between atoms: _519  and  _521
REMARK  204  A    between atoms: _521  and  _522
REMARK  205  A    between atoms: _521  and  _524
REMARK  206  A    between atoms: _524  and  _525
REMARK  207  A    between atoms: _525  and  _526
REMARK  208  A    between atoms: _526  and  _527
REMARK  209  A    between atoms: _527  and  _528
REMARK  210  A    between atoms: _532  and  _534
REMARK  211  A    between atoms: _534  and  _535
REMARK  212  A    between atoms: _534  and  _537
REMARK  213  A    between atoms: _537  and  _538
REMARK  214  A    between atoms: _540  and  _542
REMARK  215  A    between atoms: _542  and  _543
REMARK  216  A    between atoms: _542  and  _545
REMARK  217  A    between atoms: _545  and  _546
REMARK  218  A    between atoms: _549  and  _551
REMARK  219  A    between atoms: _551  and  _552
REMARK  220  A    between atoms: _551  and  _554
REMARK  221  A    between atoms: _554  and  _555
REMARK  222  A    between atoms: _555  and  _556
REMARK  223  A    between atoms: _559  and  _561
REMARK  224  A    between atoms: _561  and  _562
REMARK  225  A    between atoms: _565  and  _567
REMARK  226  A    between atoms: _567  and  _568
REMARK  227  A    between atoms: _567  and  _570
REMARK  228  A    between atoms: _570  and  _571
REMARK  229  A    between atoms: _573  and  _575
REMARK  230  A    between atoms: _575  and  _576
REMARK  231  A    between atoms: _578  and  _580
REMARK  232  A    between atoms: _580  and  _581
REMARK  233  A    between atoms: _580  and  _583
REMARK  234  A    between atoms: _583  and  _584
REMARK  235  A    between atoms: _587  and  _589
REMARK  236  A    between atoms: _589  and  _590
REMARK  237  A    between atoms: _592  and  _594
REMARK  238  A    between atoms: _594  and  _595
REMARK  239  A    between atoms: _594  and  _597
REMARK  240  A    between atoms: _597  and  _598
REMARK  241  A    between atoms: _603  and  _605
REMARK  242  A    between atoms: _605  and  _606
REMARK  243  A    between atoms: _605  and  _608
REMARK  244  A    between atoms: _608  and  _609
REMARK  245  A    between atoms: _609  and  _610
REMARK  246  A    between atoms: _617  and  _618
REMARK  247  A    between atoms: _618  and  _634
REMARK  248  A    between atoms: _619  and  _621
REMARK  249  A    between atoms: _621  and  _622
REMARK  250  A    between atoms: _622  and  _623
REMARK  251  A    between atoms: _627  and  _629
REMARK  252  A    between atoms: _629  and  _630
REMARK  253  A    between atoms: _629  and  _637
REMARK  254  A    between atoms: _630  and  _631
REMARK  255  A    between atoms: _631  and  _632
REMARK  256  A    between atoms: _632  and  _633
REMARK  257  A    between atoms: _633  and  _634
REMARK  258  A    between atoms: _639  and  _641
REMARK  259  A    between atoms: _641  and  _642
REMARK  260  A    between atoms: _641  and  _644
REMARK  261  A    between atoms: _644  and  _645
REMARK  262  A    between atoms: _648  and  _650
REMARK  263  A    between atoms: _650  and  _651
REMARK  264  A    between atoms: _653  and  _655
REMARK  265  A    between atoms: _655  and  _656
REMARK  266  A    between atoms: _659  and  _661
REMARK  267  A    between atoms: _661  and  _662
REMARK  268  A    between atoms: _661  and  _664
REMARK  269  A    between atoms: _664  and  _665
REMARK  270  A    between atoms: _670  and  _671
REMARK                            x       y       z     vdW  Elec       q    Type
REMARK                         _______ _______ _______ _____ _____    ______ ____
ROOT
ATOM      1  CG  LYS A   1      36.387   8.712  25.099  0.00  0.00    -0.000 C 
ENDROOT
BRANCH   1   2
ATOM      2  CB  LYS A   1      35.444   9.864  24.755  0.00  0.00    +0.025 C 
BRANCH   2   3
ATOM      3  CA  LYS A   1      35.335  10.188  23.253  0.00  0.00    +0.133 C 
BRANCH   3   4
ATOM      4  N   LYS A   1      36.624  10.604  22.705  0.00  0.00    -0.239 NA
ATOM      5  H   LYS A   1      36.931  11.588  22.844  0.00  0.00    +0.142 HD
ENDBRANCH   3   4
BRANCH   3   6
ATOM      6  C   LYS A   1      34.361  11.332  23.026  0.00  0.00    +0.224 C 
ATOM      7  O   LYS A   1      34.289  12.260  23.825  0.00  0.00    -0.287 OA
ENDBRANCH   3   6
ENDBRANCH   2   3
ENDBRANCH   1   2
BRANCH   1   8
ATOM      8  CD  LYS A   1      35.795   7.351  24.727  0.00  0.00    -0.024 C 
BRANCH   8   9
ATOM      9  CE  LYS A   1      36.837   6.246  24.840  0.00  0.00    -0.086 C 
BRANCH   9  10
ATOM     10  NZ  LYS A   1      37.760   6.242  23.665  0.00  0.00    +0.380 N 
ATOM     11  HZ1 LYS A   1      38.456   5.477  23.775  0.00  0.00    -0.089 HD
ATOM     12  HZ2 LYS A   1      38.253   7.156  23.610  0.00  0.00    -0.089 HD
ATOM     13  HZ3 LYS A   1      37.211   6.090  22.795  0.00  0.00    -0.089 HD
ENDBRANCH   9  10
ENDBRANCH   8   9
ENDBRANCH   1   8
TORSDOF 7
REMARK  Name = ../refined-set-2016/3g2k/3g2k_pocket.pdb
REMARK  270 active torsions:
REMARK  status: ('A' for Active; 'I' for Inactive)
REMARK    1  A    between atoms: _1  and  _3
REMARK    2  A    between atoms: _3  and  _4
REMARK    3  A    between atoms: _3  and  _6
REMARK    4  A    between atoms: _6  and  _7
REMARK    5  A    between atoms: _12  and  _13
REMARK    6  A    between atoms: _15  and  _17
REMARK    7  A    between atoms: _17  and  _18
REMARK    8  A    between atoms: _17  and  _20
REMARK    9  A    between atoms: _20  and  _21
REMARK   10  A    between atoms: _24  and  _26
REMARK   11  A    between atoms: _26  and  _27
REMARK   12  A    between atoms: _26  and  _29
REMARK   13  A    between atoms: _29  and  _30
REMARK   14  A    between atoms: _30  and  _31
REMARK   15  A    between atoms: _34  and  _36
REMARK   16  A    between atoms: _36  and  _37
REMARK   17  A    between atoms: _36  and  _39
REMARK   18  A    between atoms: _39  and  _40
REMARK   19  A    between atoms: _45  and  _47
REMARK   20  A    between atoms: _47  and  _48
REMARK   21  A    between atoms: _50  and  _52
REMARK   22  A    between atoms: _52  and  _53
REMARK   23  A    between atoms: _55  and  _57
REMARK   24  A    between atoms: _57  and  _58
REMARK   25  A    between atoms: _57  and  _60
REMARK   26  A    between atoms: _60  and  _61
REMARK   27  A    between atoms: _64  and  _66
REMARK   28  A    between atoms: _66  and  _67
REMARK   29  A    between atoms: _69  and  _71
REMARK   30  A    between atoms: _71  and  _72
REMARK   31  A    between atoms: _71  and  _74
REMARK   32  A    between atoms: _74  and  _75
REMARK   33  A    between atoms: _75  and  _76
REMARK   34  A    between atoms: _76  and  _77
REMARK   35  A    between atoms: _86  and  _88
REMARK   36  A    between atoms: _88  and  _89
REMARK   37  A    between atoms: _88  and  _91
REMARK   38  A    between atoms: _91  and  _92
REMARK   39  A    between atoms: _95  and  _97
REMARK   40  A    between atoms: _97  and  _98
REMARK   41  A    between atoms: _101  and  _103
REMARK   42  A    between atoms: _103  and  _104
REMARK   43  A    between atoms: _103  and  _106
REMARK   44  A    between atoms: _106  and  _107
REMARK   45  A    between atoms: _113  and  _115
REMARK   46  A    between atoms: _115  and  _116
REMARK   47  A    between atoms: _115  and  _118
REMARK   48  A    between atoms: _118  and  _119
REMARK   49  A    between atoms: _124  and  _125
REMARK   50  A    between atoms: _128  and  _129
REMARK   51  A    between atoms: _134  and  _136
REMARK   52  A    between atoms: _136  and  _137
REMARK   53  A    between atoms: _136  and  _139
REMARK   54  A    between atoms: _139  and  _140
REMARK   55  A    between atoms: _145  and  _147
REMARK   56  A    between atoms: _147  and  _148
REMARK   57  A    between atoms: _147  and  _150
REMARK   58  A    between atoms: _150  and  _151
REMARK   59  A    between atoms: _154  and  _156
REMARK   60  A    between atoms: _156  and  _157
REMARK   61  A    between atoms: _156  and  _159
REMARK   62  A    between atoms: _159  and  _160
REMARK   63  A    between atoms: _165  and  _167
REMARK   64  A    between atoms: _167  and  _168
REMARK   65  A    between atoms: _167  and  _170
REMARK   66  A    between atoms: _170  and  _171
REMARK   67  A    between atoms: _177  and  _179
REMARK   68  A    between atoms: _179  and  _180
REMARK   69  A    between atoms: _179  and  _182
REMARK   70  A    between atoms: _182  and  _183
REMARK   71  A    between atoms: _189  and  _191
REMARK   72  A    between atoms: _191  and  _192
REMARK   73  A    between atoms: _191  and  _194
REMARK   74  A    between atoms: _194  and  _195
REMARK   75  A    between atoms: _195  and  _196
REMARK   76  A    between atoms: _199  and  _201
REMARK   77  A    between atoms: _201  and  _202
REMARK   78  A    between atoms: _201  and  _204
REMARK   79  A    between atoms: _204  and  _205
REMARK   80  A    between atoms: _205  and  _206
REMARK   81  A    between atoms: _206  and  _207
REMARK   82  A    between atoms: _216  and  _218
REMARK   83  A    between atoms: _218  and  _219
REMARK   84  A    between atoms: _218  and  _221
REMARK   85  A    between atoms: _221  and  _222
REMARK   86  A    between atoms: _222  and  _223
REMARK   87  A    between atoms: _226  and  _228
REMARK   88  A    between atoms: _228  and  _229
REMARK   89  A    between atoms: _228  and  _231
REMARK   90  A    between atoms: _231  and  _232
REMARK   91  A    between atoms: _237  and  _239
REMARK   92  A    between atoms: _239  and  _240
REMARK   93  A    between atoms: _239  and  _242
REMARK   94  A    between atoms: _242  and  _243
REMARK   95  A    between atoms: _246  and  _248
REMARK   96  A    between atoms: _248  and  _249
REMARK   97  A    between atoms: _248  and  _251
REMARK   98  A    between atoms: _251  and  _252
REMARK   99  A    between atoms: _255  and  _257
REMARK  100  A    between atoms: _257  and  _258
REMARK  101  A    between atoms: _257  and  _260
REMARK  102  A    between atoms: _260  and  _261
REMARK  103  A    between atoms: _266  and  _268
REMARK  104  A    between atoms: _268  and  _269
REMARK  105  A    between atoms: _268  and  _271
REMARK  106  A    between atoms: _271  and  _272
REMARK  107  A    between atoms: _277  and  _278
REMARK  108  A    between atoms: _280  and  _282
REMARK  109  A    between atoms: _282  and  _283
REMARK  110  A    between atoms: _282  and  _285
REMARK  111  A    between atoms: _285  and  _286
REMARK  112  A    between atoms: _289  and  _291
REMARK  113  A    between atoms: _291  and  _292
REMARK  114  A    between atoms: _291  and  _294
REMARK  115  A    between atoms: _294  and  _295
REMARK  116  A    between atoms: _300  and  _302
REMARK  117  A    between atoms: _302  and  _303
REMARK  118  A    between atoms: _302  and  _305
REMARK  119  A    between atoms: _305  and  _306
REMARK  120  A    between atoms: _311  and  _313
REMARK  121  A    between atoms: _313  and  _314
REMARK  122  A    between atoms: _313  and  _316
REMARK  123  A    between atoms: _316  and  _317
REMARK  124  A    between atoms: _320  and  _322
REMARK  125  A    between atoms: _322  and  _323
REMARK  126  A    between atoms: _322  and  _325
REMARK  127  A    between atoms: _328  and  _330
REMARK  128  A    between atoms: _330  and  _331
REMARK  129  A    between atoms: _330  and  _333
REMARK  130  A    between atoms: _333  and  _334
REMARK  131  A    between atoms: _337  and  _339
REMARK  132  A    between atoms: _339  and  _340
REMARK  133  A    between atoms: _339  and  _342
REMARK  134  A    between atoms: _342  and  _343
REMARK  135  A    between atoms: _343  and  _344
REMARK  136  A    between atoms: _347  and  _349
REMARK  137  A    between atoms: _349  and  _350
REMARK  138  A    between atoms: _353  and  _355
REMARK  139  A    between atoms: _355  and  _356
REMARK  140  A    between atoms: _355  and  _358
REMARK  141  A    between atoms: _358  and  _359
REMARK  142  A    between atoms: _362  and  _364
REMARK  143  A    between atoms: _364  and  _365
REMARK  144  A    between atoms: _364  and  _367
REMARK  145  A    between atoms: _367  and  _368
REMARK  146  A    between atoms: _368  and  _369
REMARK  147  A    between atoms: _372  and  _374
REMARK  148  A    between atoms: _374  and  _375
REMARK  149  A    between atoms: _374  and  _377
REMARK  150  A    between atoms: _377  and  _378
REMARK  151  A    between atoms: _378  and  _379
REMARK  152  A    between atoms: _379  and  _380
REMARK  153  A    between atoms: _389  and  _391
REMARK  154  A    between atoms: _391  and  _392
REMARK  155  A    between atoms: _391  and  _394
REMARK  156  A    between atoms: _394  and  _395
REMARK  157  A    between atoms: _405  and  _407
REMARK  158  A    between atoms: _407  and  _408
REMARK  159  A    between atoms: _407  and  _410
REMARK  160  A    between atoms: _410  and  _411
REMARK  161  A    between atoms: _416  and  _418
REMARK  162  A    between atoms: _418  and  _419
REMARK  163  A    between atoms: _421  and  _423
REMARK  164  A    between atoms: _423  and  _424
REMARK  165  A    between atoms: _423  and  _426
REMARK  166  A    between atoms: _429  and  _431
REMARK  167  A    between atoms: _431  and  _432
REMARK  168  A    between atoms: _435  and  _437
REMARK  169  A    between atoms: _437  and  _438
REMARK  170  A    between atoms: _437  and  _440
REMARK  171  A    between atoms: _440  and  _441
REMARK  172  A    between atoms: _446  and  _448
REMARK  173  A    between atoms: _448  and  _449
REMARK  174  A    between atoms: _448  and  _451
REMARK  175  A    between atoms: _451  and  _452
REMARK  176  A    between atoms: _452  and  _453
REMARK  177  A    between atoms: _453  and  _454
REMARK  178  A    between atoms: _454  and  _455
REMARK  179  A    between atoms: _459  and  _461
REMARK  180  A    between atoms: _461  and  _462
REMARK  181  A    between atoms: _461  and  _464
REMARK  182  A    between atoms: _464  and  _465
REMARK  183  A    between atoms: _470  and  _472
REMARK  184  A    between atoms: _472  and  _473
REMARK  185  A    between atoms: _475  and  _477
REMARK  186  A    between atoms: _477  and  _478
REMARK  187  A    between atoms: _477  and  _480
REMARK  188  A    between atoms: _480  and  _481
REMARK  189  A    between atoms: _481  and  _482
REMARK  190  A    between atoms: _482  and  _483
REMARK  191  A    between atoms: _483  and  _484
REMARK  192  A    between atoms: _488  and  _490
REMARK  193  A    between atoms: _490  and  _491
REMARK  194  A    between atoms: _490  and  _493
REMARK  195  A    between atoms: _493  and  _494
REMARK  196  A    between atoms: _494  and  _495
REMARK  197  A    between atoms: _495  and  _496
REMARK  198  A    between atoms: _505  and  _507
REMARK  199  A    between atoms: _507  and  _508
REMARK  200  A    between atoms: _507  and  _510
REMARK  201  A    between atoms: _510  and  _511
REMARK  202  A    between atoms: _516  and  _517
REMARK  203  A    between atoms: _519  and  _521
REMARK  204  A    between atoms: _521  and  _522
REMARK  205  A    between atoms: _521  and  _524
REMARK  206  A    between atoms: _524  and  _525
REMARK  207  A    between atoms: _525  and  _526
REMARK  208  A    between atoms: _526  and  _527
REMARK  209  A    between atoms: _527  and  _528
REMARK  210  A    between atoms: _532  and  _534
REMARK  211  A    between atoms: _534  and  _535
REMARK  212  A    between atoms: _534  and  _537
REMARK  213  A    between atoms: _537  and  _538
REMARK  214  A    between atoms: _540  and  _542
REMARK  215  A    between atoms: _542  and  _543
REMARK  216  A    between atoms: _542  and  _545
REMARK  217  A    between atoms: _545  and  _546
REMARK  218  A    between atoms: _549  and  _551
REMARK  219  A    between atoms: _551  and  _552
REMARK  220  A    between atoms: _551  and  _554
REMARK  221  A    between atoms: _554  and  _555
REMARK  222  A    between atoms: _555  and  _556
REMARK  223  A    between atoms: _559  and  _561
REMARK  224  A    between atoms: _561  and  _562
REMARK  225  A    between atoms: _565  and  _567
REMARK  226  A    between atoms: _567  and  _568
REMARK  227  A    between atoms: _567  and  _570
REMARK  228  A    between atoms: _570  and  _571
REMARK  229  A    between atoms: _573  and  _575
REMARK  230  A    between atoms: _575  and  _576
REMARK  231  A    between atoms: _578  and  _580
REMARK  232  A    between atoms: _580  and  _581
REMARK  233  A    between atoms: _580  and  _583
REMARK  234  A    between atoms: _583  and  _584
REMARK  235  A    between atoms: _587  and  _589
REMARK  236  A    between atoms: _589  and  _590
REMARK  237  A    between atoms: _592  and  _594
REMARK  238  A    between atoms: _594  and  _595
REMARK  239  A    between atoms: _594  and  _597
REMARK  240  A    between atoms: _597  and  _598
REMARK  241  A    between atoms: _603  and  _605
REMARK  242  A    between atoms: _605  and  _606
REMARK  243  A    between atoms: _605  and  _608
REMARK  244  A    between atoms: _608  and  _609
REMARK  245  A    between atoms: _609  and  _610
REMARK  246  A    between atoms: _617  and  _618
REMARK  247  A    between atoms: _618  and  _634
REMARK  248  A    between atoms: _619  and  _621
REMARK  249  A    between atoms: _621  and  _622
REMARK  250  A    between atoms: _622  and  _623
REMARK  251  A    between atoms: _627  and  _629
REMARK  252  A    between atoms: _629  and  _630
REMARK  253  A    between atoms: _629  and  _637
REMARK  254  A    between atoms: _630  and  _631
REMARK  255  A    between atoms: _631  and  _632
REMARK  256  A    between atoms: _632  and  _633
REMARK  257  A    between atoms: _633  and  _634
REMARK  258  A    between atoms: _639  and  _641
REMARK  259  A    between atoms: _641  and  _642
REMARK  260  A    between atoms: _641  and  _644
REMARK  261  A    between atoms: _644  and  _645
REMARK  262  A    between atoms: _648  and  _650
REMARK  263  A    between atoms: _650  and  _651
REMARK  264  A    between atoms: _653  and  _655
REMARK  265  A    between atoms: _655  and  _656
REMARK  266  A    between atoms: _659  and  _661
REMARK  267  A    between atoms: _661  and  _662
REMARK  268  A    between atoms: _661  and  _664
REMARK  269  A    between atoms: _664  and  _665
REMARK  270  A    between atoms: _670  and  _671
REMARK                            x       y       z     vdW  Elec       q    Type
REMARK                         _______ _______ _______ _____ _____    ______ ____
ROOT
ATOM      1  CA  ASN A   1      30.417  13.953  24.213  0.00  0.00    +0.154 C 
ENDROOT
BRANCH   1   2
ATOM      2  C   ASN A   1      29.000  13.502  23.864  0.00  0.00    +0.239 C 
ATOM      3  N   GLY A   2      28.153  13.442  24.884  0.00  0.00    -0.297 N 
ATOM      4  H   GLY A   2      28.511  13.638  25.841  0.00  0.00    +0.150 HD
ATOM      5  O   ASN A   1      28.691  13.224  22.703  0.00  0.00    -0.274 OA
BRANCH   3   6
ATOM      6  CA  GLY A   2      26.743  13.113  24.720  0.00  0.00    +0.163 C 
BRANCH   6   7
ATOM      7  C   GLY A   2      25.920  13.787  25.802  0.00  0.00    +0.229 C 
ATOM      8  O   GLY A   2      26.471  14.432  26.702  0.00  0.00    -0.286 OA
ENDBRANCH   6   7
ENDBRANCH   3   6
ENDBRANCH   1   2
BRANCH   1   9
ATOM      9  N   ASN A   1      31.387  13.662  23.155  0.00  0.00    -0.238 NA
ATOM     10  H   ASN A   1      31.917  14.456  22.743  0.00  0.00    +0.142 HD
ENDBRANCH   1   9
BRANCH   1  11
ATOM     11  CB  ASN A   1      30.403  15.459  24.515  0.00  0.00    +0.111 C 
BRANCH  11  12
ATOM     12  CG  ASN A   1      31.551  15.897  25.436  0.00  0.00    +0.221 C 
ATOM     13  ND2 ASN A   1      32.252  14.931  26.020  0.00  0.00    -0.329 N 
ATOM     14 HD21 ASN A   1      33.035  15.171  26.661  0.00  0.00    +0.145 HD
ATOM     15 HD22 ASN A   1      32.018  13.935  25.836  0.00  0.00    +0.145 HD
ATOM     16  OD1 ASN A   1      31.789  17.103  25.622  0.00  0.00    -0.275 OA
ENDBRANCH  11  12
ENDBRANCH   1  11
TORSDOF 6
REMARK  Name = ../refined-set-2016/3g2k/3g2k_pocket.pdb
REMARK  270 active torsions:
REMARK  status: ('A' for Active; 'I' for Inactive)
REMARK    1  A    between atoms: _1  and  _3
REMARK    2  A    between atoms: _3  and  _4
REMARK    3  A    between atoms: _3  and  _6
REMARK    4  A    between atoms: _6  and  _7
REMARK    5  A    between atoms: _12  and  _13
REMARK    6  A    between atoms: _15  and  _17
REMARK    7  A    between atoms: _17  and  _18
REMARK    8  A    between atoms: _17  and  _20
REMARK    9  A    between atoms: _20  and  _21
REMARK   10  A    between atoms: _24  and  _26
REMARK   11  A    between atoms: _26  and  _27
REMARK   12  A    between atoms: _26  and  _29
REMARK   13  A    between atoms: _29  and  _30
REMARK   14  A    between atoms: _30  and  _31
REMARK   15  A    between atoms: _34  and  _36
REMARK   16  A    between atoms: _36  and  _37
REMARK   17  A    between atoms: _36  and  _39
REMARK   18  A    between atoms: _39  and  _40
REMARK   19  A    between atoms: _45  and  _47
REMARK   20  A    between atoms: _47  and  _48
REMARK   21  A    between atoms: _50  and  _52
REMARK   22  A    between atoms: _52  and  _53
REMARK   23  A    between atoms: _55  and  _57
REMARK   24  A    between atoms: _57  and  _58
REMARK   25  A    between atoms: _57  and  _60
REMARK   26  A    between atoms: _60  and  _61
REMARK   27  A    between atoms: _64  and  _66
REMARK   28  A    between atoms: _66  and  _67
REMARK   29  A    between atoms: _69  and  _71
REMARK   30  A    between atoms: _71  and  _72
REMARK   31  A    between atoms: _71  and  _74
REMARK   32  A    between atoms: _74  and  _75
REMARK   33  A    between atoms: _75  and  _76
REMARK   34  A    between atoms: _76  and  _77
REMARK   35  A    between atoms: _86  and  _88
REMARK   36  A    between atoms: _88  and  _89
REMARK   37  A    between atoms: _88  and  _91
REMARK   38  A    between atoms: _91  and  _92
REMARK   39  A    between atoms: _95  and  _97
REMARK   40  A    between atoms: _97  and  _98
REMARK   41  A    between atoms: _101  and  _103
REMARK   42  A    between atoms: _103  and  _104
REMARK   43  A    between atoms: _103  and  _106
REMARK   44  A    between atoms: _106  and  _107
REMARK   45  A    between atoms: _113  and  _115
REMARK   46  A    between atoms: _115  and  _116
REMARK   47  A    between atoms: _115  and  _118
REMARK   48  A    between atoms: _118  and  _119
REMARK   49  A    between atoms: _124  and  _125
REMARK   50  A    between atoms: _128  and  _129
REMARK   51  A    between atoms: _134  and  _136
REMARK   52  A    between atoms: _136  and  _137
REMARK   53  A    between atoms: _136  and  _139
REMARK   54  A    between atoms: _139  and  _140
REMARK   55  A    between atoms: _145  and  _147
REMARK   56  A    between atoms: _147  and  _148
REMARK   57  A    between atoms: _147  and  _150
REMARK   58  A    between atoms: _150  and  _151
REMARK   59  A    between atoms: _154  and  _156
REMARK   60  A    between atoms: _156  and  _157
REMARK   61  A    between atoms: _156  and  _159
REMARK   62  A    between atoms: _159  and  _160
REMARK   63  A    between atoms: _165  and  _167
REMARK   64  A    between atoms: _167  and  _168
REMARK   65  A    between atoms: _167  and  _170
REMARK   66  A    between atoms: _170  and  _171
REMARK   67  A    between atoms: _177  and  _179
REMARK   68  A    between atoms: _179  and  _180
REMARK   69  A    between atoms: _179  and  _182
REMARK   70  A    between atoms: _182  and  _183
REMARK   71  A    between atoms: _189  and  _191
REMARK   72  A    between atoms: _191  and  _192
REMARK   73  A    between atoms: _191  and  _194
REMARK   74  A    between atoms: _194  and  _195
REMARK   75  A    between atoms: _195  and  _196
REMARK   76  A    between atoms: _199  and  _201
REMARK   77  A    between atoms: _201  and  _202
REMARK   78  A    between atoms: _201  and  _204
REMARK   79  A    between atoms: _204  and  _205
REMARK   80  A    between atoms: _205  and  _206
REMARK   81  A    between atoms: _206  and  _207
REMARK   82  A    between atoms: _216  and  _218
REMARK   83  A    between atoms: _218  and  _219
REMARK   84  A    between atoms: _218  and  _221
REMARK   85  A    between atoms: _221  and  _222
REMARK   86  A    between atoms: _222  and  _223
REMARK   87  A    between atoms: _226  and  _228
REMARK   88  A    between atoms: _228  and  _229
REMARK   89  A    between atoms: _228  and  _231
REMARK   90  A    between atoms: _231  and  _232
REMARK   91  A    between atoms: _237  and  _239
REMARK   92  A    between atoms: _239  and  _240
REMARK   93  A    between atoms: _239  and  _242
REMARK   94  A    between atoms: _242  and  _243
REMARK   95  A    between atoms: _246  and  _248
REMARK   96  A    between atoms: _248  and  _249
REMARK   97  A    between atoms: _248  and  _251
REMARK   98  A    between atoms: _251  and  _252
REMARK   99  A    between atoms: _255  and  _257
REMARK  100  A    between atoms: _257  and  _258
REMARK  101  A    between atoms: _257  and  _260
REMARK  102  A    between atoms: _260  and  _261
REMARK  103  A    between atoms: _266  and  _268
REMARK  104  A    between atoms: _268  and  _269
REMARK  105  A    between atoms: _268  and  _271
REMARK  106  A    between atoms: _271  and  _272
REMARK  107  A    between atoms: _277  and  _278
REMARK  108  A    between atoms: _280  and  _282
REMARK  109  A    between atoms: _282  and  _283
REMARK  110  A    between atoms: _282  and  _285
REMARK  111  A    between atoms: _285  and  _286
REMARK  112  A    between atoms: _289  and  _291
REMARK  113  A    between atoms: _291  and  _292
REMARK  114  A    between atoms: _291  and  _294
REMARK  115  A    between atoms: _294  and  _295
REMARK  116  A    between atoms: _300  and  _302
REMARK  117  A    between atoms: _302  and  _303
REMARK  118  A    between atoms: _302  and  _305
REMARK  119  A    between atoms: _305  and  _306
REMARK  120  A    between atoms: _311  and  _313
REMARK  121  A    between atoms: _313  and  _314
REMARK  122  A    between atoms: _313  and  _316
REMARK  123  A    between atoms: _316  and  _317
REMARK  124  A    between atoms: _320  and  _322
REMARK  125  A    between atoms: _322  and  _323
REMARK  126  A    between atoms: _322  and  _325
REMARK  127  A    between atoms: _328  and  _330
REMARK  128  A    between atoms: _330  and  _331
REMARK  129  A    between atoms: _330  and  _333
REMARK  130  A    between atoms: _333  and  _334
REMARK  131  A    between atoms: _337  and  _339
REMARK  132  A    between atoms: _339  and  _340
REMARK  133  A    between atoms: _339  and  _342
REMARK  134  A    between atoms: _342  and  _343
REMARK  135  A    between atoms: _343  and  _344
REMARK  136  A    between atoms: _347  and  _349
REMARK  137  A    between atoms: _349  and  _350
REMARK  138  A    between atoms: _353  and  _355
REMARK  139  A    between atoms: _355  and  _356
REMARK  140  A    between atoms: _355  and  _358
REMARK  141  A    between atoms: _358  and  _359
REMARK  142  A    between atoms: _362  and  _364
REMARK  143  A    between atoms: _364  and  _365
REMARK  144  A    between atoms: _364  and  _367
REMARK  145  A    between atoms: _367  and  _368
REMARK  146  A    between atoms: _368  and  _369
REMARK  147  A    between atoms: _372  and  _374
REMARK  148  A    between atoms: _374  and  _375
REMARK  149  A    between atoms: _374  and  _377
REMARK  150  A    between atoms: _377  and  _378
REMARK  151  A    between atoms: _378  and  _379
REMARK  152  A    between atoms: _379  and  _380
REMARK  153  A    between atoms: _389  and  _391
REMARK  154  A    between atoms: _391  and  _392
REMARK  155  A    between atoms: _391  and  _394
REMARK  156  A    between atoms: _394  and  _395
REMARK  157  A    between atoms: _405  and  _407
REMARK  158  A    between atoms: _407  and  _408
REMARK  159  A    between atoms: _407  and  _410
REMARK  160  A    between atoms: _410  and  _411
REMARK  161  A    between atoms: _416  and  _418
REMARK  162  A    between atoms: _418  and  _419
REMARK  163  A    between atoms: _421  and  _423
REMARK  164  A    between atoms: _423  and  _424
REMARK  165  A    between atoms: _423  and  _426
REMARK  166  A    between atoms: _429  and  _431
REMARK  167  A    between atoms: _431  and  _432
REMARK  168  A    between atoms: _435  and  _437
REMARK  169  A    between atoms: _437  and  _438
REMARK  170  A    between atoms: _437  and  _440
REMARK  171  A    between atoms: _440  and  _441
REMARK  172  A    between atoms: _446  and  _448
REMARK  173  A    between atoms: _448  and  _449
REMARK  174  A    between atoms: _448  and  _451
REMARK  175  A    between atoms: _451  and  _452
REMARK  176  A    between atoms: _452  and  _453
REMARK  177  A    between atoms: _453  and  _454
REMARK  178  A    between atoms: _454  and  _455
REMARK  179  A    between atoms: _459  and  _461
REMARK  180  A    between atoms: _461  and  _462
REMARK  181  A    between atoms: _461  and  _464
REMARK  182  A    between atoms: _464  and  _465
REMARK  183  A    between atoms: _470  and  _472
REMARK  184  A    between atoms: _472  and  _473
REMARK  185  A    between atoms: _475  and  _477
REMARK  186  A    between atoms: _477  and  _478
REMARK  187  A    between atoms: _477  and  _480
REMARK  188  A    between atoms: _480  and  _481
REMARK  189  A    between atoms: _481  and  _482
REMARK  190  A    between atoms: _482  and  _483
REMARK  191  A    between atoms: _483  and  _484
REMARK  192  A    between atoms: _488  and  _490
REMARK  193  A    between atoms: _490  and  _491
REMARK  194  A    between atoms: _490  and  _493
REMARK  195  A    between atoms: _493  and  _494
REMARK  196  A    between atoms: _494  and  _495
REMARK  197  A    between atoms: _495  and  _496
REMARK  198  A    between atoms: _505  and  _507
REMARK  199  A    between atoms: _507  and  _508
REMARK  200  A    between atoms: _507  and  _510
REMARK  201  A    between atoms: _510  and  _511
REMARK  202  A    between atoms: _516  and  _517
REMARK  203  A    between atoms: _519  and  _521
REMARK  204  A    between atoms: _521  and  _522
REMARK  205  A    between atoms: _521  and  _524
REMARK  206  A    between atoms: _524  and  _525
REMARK  207  A    between atoms: _525  and  _526
REMARK  208  A    between atoms: _526  and  _527
REMARK  209  A    between atoms: _527  and  _528
REMARK  210  A    between atoms: _532  and  _534
REMARK  211  A    between atoms: _534  and  _535
REMARK  212  A    between atoms: _534  and  _537
REMARK  213  A    between atoms: _537  and  _538
REMARK  214  A    between atoms: _540  and  _542
REMARK  215  A    between atoms: _542  and  _543
REMARK  216  A    between atoms: _542  and  _545
REMARK  217  A    between atoms: _545  and  _546
REMARK  218  A    between atoms: _549  and  _551
REMARK  219  A    between atoms: _551  and  _552
REMARK  220  A    between atoms: _551  and  _554
REMARK  221  A    between atoms: _554  and  _555
REMARK  222  A    between atoms: _555  and  _556
REMARK  223  A    between atoms: _559  and  _561
REMARK  224  A    between atoms: _561  and  _562
REMARK  225  A    between atoms: _565  and  _567
REMARK  226  A    between atoms: _567  and  _568
REMARK  227  A    between atoms: _567  and  _570
REMARK  228  A    between atoms: _570  and  _571
REMARK  229  A    between atoms: _573  and  _575
REMARK  230  A    between atoms: _575  and  _576
REMARK  231  A    between atoms: _578  and  _580
REMARK  232  A    between atoms: _580  and  _581
REMARK  233  A    between atoms: _580  and  _583
REMARK  234  A    between atoms: _583  and  _584
REMARK  235  A    between atoms: _587  and  _589
REMARK  236  A    between atoms: _589  and  _590
REMARK  237  A    between atoms: _592  and  _594
REMARK  238  A    between atoms: _594  and  _595
REMARK  239  A    between atoms: _594  and  _597
REMARK  240  A    between atoms: _597  and  _598
REMARK  241  A    between atoms: _603  and  _605
REMARK  242  A    between atoms: _605  and  _606
REMARK  243  A    between atoms: _605  and  _608
REMARK  244  A    between atoms: _608  and  _609
REMARK  245  A    between atoms: _609  and  _610
REMARK  246  A    between atoms: _617  and  _618
REMARK  247  A    between atoms: _618  and  _634
REMARK  248  A    between atoms: _619  and  _621
REMARK  249  A    between atoms: _621  and  _622
REMARK  250  A    between atoms: _622  and  _623
REMARK  251  A    between atoms: _627  and  _629
REMARK  252  A    between atoms: _629  and  _630
REMARK  253  A    between atoms: _629  and  _637
REMARK  254  A    between atoms: _630  and  _631
REMARK  255  A    between atoms: _631  and  _632
REMARK  256  A    between atoms: _632  and  _633
REMARK  257  A    between atoms: _633  and  _634
REMARK  258  A    between atoms: _639  and  _641
REMARK  259  A    between atoms: _641  and  _642
REMARK  260  A    between atoms: _641  and  _644
REMARK  261  A    between atoms: _644  and  _645
REMARK  262  A    between atoms: _648  and  _650
REMARK  263  A    between atoms: _650  and  _651
REMARK  264  A    between atoms: _653  and  _655
REMARK  265  A    between atoms: _655  and  _656
REMARK  266  A    between atoms: _659  and  _661
REMARK  267  A    between atoms: _661  and  _662
REMARK  268  A    between atoms: _661  and  _664
REMARK  269  A    between atoms: _664  and  _665
REMARK  270  A    between atoms: _670  and  _671
REMARK                            x       y       z     vdW  Elec       q    Type
REMARK                         _______ _______ _______ _____ _____    ______ ____
ROOT
ATOM      1  C   LYS A   1      25.979  30.417  27.274  0.00  0.00    +0.238 C 
ATOM      2  N   ARG A   2      27.051  30.113  27.997  0.00  0.00    -0.298 N 
ATOM      3  H   ARG A   2      27.347  29.120  28.079  0.00  0.00    +0.150 HD
ATOM      4  O   LYS A   1      25.580  31.576  27.125  0.00  0.00    -0.274 OA
ENDROOT
BRANCH   1   5
ATOM      5  CA  LYS A   1      25.241  29.254  26.607  0.00  0.00    +0.145 C 
BRANCH   5   6
ATOM      6  N   LYS A   1      23.966  29.789  26.136  0.00  0.00    -0.238 NA
ATOM      7  H   LYS A   1      23.692  30.740  26.457  0.00  0.00    +0.142 HD
ENDBRANCH   5   6
BRANCH   5   8
ATOM      8  CB  LYS A   1      26.086  28.700  25.455  0.00  0.00    +0.026 C 
BRANCH   8   9
ATOM      9  CG  LYS A   1      26.671  29.762  24.553  0.00  0.00    -0.000 C 
BRANCH   9  10
ATOM     10  CD  LYS A   1      26.142  29.706  23.152  0.00  0.00    -0.024 C 
BRANCH  10  11
ATOM     11  CE  LYS A   1      26.924  28.756  22.283  0.00  0.00    -0.086 C 
BRANCH  11  12
ATOM     12  NZ  LYS A   1      26.380  27.362  22.164  0.00  0.00    +0.380 N 
ATOM     13  HZ1 LYS A   1      26.343  26.924  23.107  0.00  0.00    -0.089 HD
ATOM     14  HZ2 LYS A   1      25.423  27.398  21.760  0.00  0.00    -0.089 HD
ATOM     15  HZ3 LYS A   1      26.999  26.802  21.544  0.00  0.00    -0.089 HD
ENDBRANCH  11  12
ENDBRANCH  10  11
ENDBRANCH   9  10
ENDBRANCH   8   9
ENDBRANCH   5   8
ENDBRANCH   1   5
BRANCH   2  16
ATOM     16  CA  ARG A   2      27.823  31.154  28.681  0.00  0.00    +0.137 C 
BRANCH  16  17
ATOM     17  C   ARG A   2      28.338  32.215  27.705  0.00  0.00    +0.227 C 
ATOM     18  O   ARG A   2      28.682  31.904  26.566  0.00  0.00    -0.286 OA
ENDBRANCH  16  17
BRANCH  16  19
ATOM     19  CB  ARG A   2      28.984  30.536  29.469  0.00  0.00    +0.031 C 
BRANCH  19  20
ATOM     20  CG  ARG A   2      28.554  29.716  30.678  0.00  0.00    +0.045 C 
BRANCH  20  21
ATOM     21  CD  ARG A   2      27.956  30.591  31.774  0.00  0.00    +0.174 C 
BRANCH  21  22
ATOM     22  NE  ARG A   2      28.931  31.551  32.297  0.00  0.00    -0.265 N 
ATOM     23  CZ  ARG A   2      29.607  31.395  33.435  0.00  0.00    +0.342 C 
ATOM     24  NH2 ARG A   2      29.417  30.316  34.190  0.00  0.00    -0.292 N 
ATOM     25 HH21 ARG A   2      29.948  30.202  35.077  0.00  0.00    +0.255 HD
ATOM     26 HH22 ARG A   2      28.737  29.587  33.893  0.00  0.00    +0.255 HD
ATOM     27  NH1 ARG A   2      30.477  32.324  33.818  0.00  0.00    -0.292 N 
ATOM     28 HH11 ARG A   2      31.007  32.206  34.705  0.00  0.00    +0.255 HD
ATOM     29 HH12 ARG A   2      30.628  33.169  33.230  0.00  0.00    +0.255 HD
ATOM     30  HE  ARG A   2      29.108  32.413  31.743  0.00  0.00    +0.259 HD
ENDBRANCH  21  22
ENDBRANCH  20  21
ENDBRANCH  19  20
ENDBRANCH  16  19
ENDBRANCH   2  16
TORSDOF 13
REMARK  Name = ../refined-set-2016/3g2k/3g2k_pocket.pdb
REMARK  270 active torsions:
REMARK  status: ('A' for Active; 'I' for Inactive)
REMARK    1  A    between atoms: _1  and  _3
REMARK    2  A    between atoms: _3  and  _4
REMARK    3  A    between atoms: _3  and  _6
REMARK    4  A    between atoms: _6  and  _7
REMARK    5  A    between atoms: _12  and  _13
REMARK    6  A    between atoms: _15  and  _17
REMARK    7  A    between atoms: _17  and  _18
REMARK    8  A    between atoms: _17  and  _20
REMARK    9  A    between atoms: _20  and  _21
REMARK   10  A    between atoms: _24  and  _26
REMARK   11  A    between atoms: _26  and  _27
REMARK   12  A    between atoms: _26  and  _29
REMARK   13  A    between atoms: _29  and  _30
REMARK   14  A    between atoms: _30  and  _31
REMARK   15  A    between atoms: _34  and  _36
REMARK   16  A    between atoms: _36  and  _37
REMARK   17  A    between atoms: _36  and  _39
REMARK   18  A    between atoms: _39  and  _40
REMARK   19  A    between atoms: _45  and  _47
REMARK   20  A    between atoms: _47  and  _48
REMARK   21  A    between atoms: _50  and  _52
REMARK   22  A    between atoms: _52  and  _53
REMARK   23  A    between atoms: _55  and  _57
REMARK   24  A    between atoms: _57  and  _58
REMARK   25  A    between atoms: _57  and  _60
REMARK   26  A    between atoms: _60  and  _61
REMARK   27  A    between atoms: _64  and  _66
REMARK   28  A    between atoms: _66  and  _67
REMARK   29  A    between atoms: _69  and  _71
REMARK   30  A    between atoms: _71  and  _72
REMARK   31  A    between atoms: _71  and  _74
REMARK   32  A    between atoms: _74  and  _75
REMARK   33  A    between atoms: _75  and  _76
REMARK   34  A    between atoms: _76  and  _77
REMARK   35  A    between atoms: _86  and  _88
REMARK   36  A    between atoms: _88  and  _89
REMARK   37  A    between atoms: _88  and  _91
REMARK   38  A    between atoms: _91  and  _92
REMARK   39  A    between atoms: _95  and  _97
REMARK   40  A    between atoms: _97  and  _98
REMARK   41  A    between atoms: _101  and  _103
REMARK   42  A    between atoms: _103  and  _104
REMARK   43  A    between atoms: _103  and  _106
REMARK   44  A    between atoms: _106  and  _107
REMARK   45  A    between atoms: _113  and  _115
REMARK   46  A    between atoms: _115  and  _116
REMARK   47  A    between atoms: _115  and  _118
REMARK   48  A    between atoms: _118  and  _119
REMARK   49  A    between atoms: _124  and  _125
REMARK   50  A    between atoms: _128  and  _129
REMARK   51  A    between atoms: _134  and  _136
REMARK   52  A    between atoms: _136  and  _137
REMARK   53  A    between atoms: _136  and  _139
REMARK   54  A    between atoms: _139  and  _140
REMARK   55  A    between atoms: _145  and  _147
REMARK   56  A    between atoms: _147  and  _148
REMARK   57  A    between atoms: _147  and  _150
REMARK   58  A    between atoms: _150  and  _151
REMARK   59  A    between atoms: _154  and  _156
REMARK   60  A    between atoms: _156  and  _157
REMARK   61  A    between atoms: _156  and  _159
REMARK   62  A    between atoms: _159  and  _160
REMARK   63  A    between atoms: _165  and  _167
REMARK   64  A    between atoms: _167  and  _168
REMARK   65  A    between atoms: _167  and  _170
REMARK   66  A    between atoms: _170  and  _171
REMARK   67  A    between atoms: _177  and  _179
REMARK   68  A    between atoms: _179  and  _180
REMARK   69  A    between atoms: _179  and  _182
REMARK   70  A    between atoms: _182  and  _183
REMARK   71  A    between atoms: _189  and  _191
REMARK   72  A    between atoms: _191  and  _192
REMARK   73  A    between atoms: _191  and  _194
REMARK   74  A    between atoms: _194  and  _195
REMARK   75  A    between atoms: _195  and  _196
REMARK   76  A    between atoms: _199  and  _201
REMARK   77  A    between atoms: _201  and  _202
REMARK   78  A    between atoms: _201  and  _204
REMARK   79  A    between atoms: _204  and  _205
REMARK   80  A    between atoms: _205  and  _206
REMARK   81  A    between atoms: _206  and  _207
REMARK   82  A    between atoms: _216  and  _218
REMARK   83  A    between atoms: _218  and  _219
REMARK   84  A    between atoms: _218  and  _221
REMARK   85  A    between atoms: _221  and  _222
REMARK   86  A    between atoms: _222  and  _223
REMARK   87  A    between atoms: _226  and  _228
REMARK   88  A    between atoms: _228  and  _229
REMARK   89  A    between atoms: _228  and  _231
REMARK   90  A    between atoms: _231  and  _232
REMARK   91  A    between atoms: _237  and  _239
REMARK   92  A    between atoms: _239  and  _240
REMARK   93  A    between atoms: _239  and  _242
REMARK   94  A    between atoms: _242  and  _243
REMARK   95  A    between atoms: _246  and  _248
REMARK   96  A    between atoms: _248  and  _249
REMARK   97  A    between atoms: _248  and  _251
REMARK   98  A    between atoms: _251  and  _252
REMARK   99  A    between atoms: _255  and  _257
REMARK  100  A    between atoms: _257  and  _258
REMARK  101  A    between atoms: _257  and  _260
REMARK  102  A    between atoms: _260  and  _261
REMARK  103  A    between atoms: _266  and  _268
REMARK  104  A    between atoms: _268  and  _269
REMARK  105  A    between atoms: _268  and  _271
REMARK  106  A    between atoms: _271  and  _272
REMARK  107  A    between atoms: _277  and  _278
REMARK  108  A    between atoms: _280  and  _282
REMARK  109  A    between atoms: _282  and  _283
REMARK  110  A    between atoms: _282  and  _285
REMARK  111  A    between atoms: _285  and  _286
REMARK  112  A    between atoms: _289  and  _291
REMARK  113  A    between atoms: _291  and  _292
REMARK  114  A    between atoms: _291  and  _294
REMARK  115  A    between atoms: _294  and  _295
REMARK  116  A    between atoms: _300  and  _302
REMARK  117  A    between atoms: _302  and  _303
REMARK  118  A    between atoms: _302  and  _305
REMARK  119  A    between atoms: _305  and  _306
REMARK  120  A    between atoms: _311  and  _313
REMARK  121  A    between atoms: _313  and  _314
REMARK  122  A    between atoms: _313  and  _316
REMARK  123  A    between atoms: _316  and  _317
REMARK  124  A    between atoms: _320  and  _322
REMARK  125  A    between atoms: _322  and  _323
REMARK  126  A    between atoms: _322  and  _325
REMARK  127  A    between atoms: _328  and  _330
REMARK  128  A    between atoms: _330  and  _331
REMARK  129  A    between atoms: _330  and  _333
REMARK  130  A    between atoms: _333  and  _334
REMARK  131  A    between atoms: _337  and  _339
REMARK  132  A    between atoms: _339  and  _340
REMARK  133  A    between atoms: _339  and  _342
REMARK  134  A    between atoms: _342  and  _343
REMARK  135  A    between atoms: _343  and  _344
REMARK  136  A    between atoms: _347  and  _349
REMARK  137  A    between atoms: _349  and  _350
REMARK  138  A    between atoms: _353  and  _355
REMARK  139  A    between atoms: _355  and  _356
REMARK  140  A    between atoms: _355  and  _358
REMARK  141  A    between atoms: _358  and  _359
REMARK  142  A    between atoms: _362  and  _364
REMARK  143  A    between atoms: _364  and  _365
REMARK  144  A    between atoms: _364  and  _367
REMARK  145  A    between atoms: _367  and  _368
REMARK  146  A    between atoms: _368  and  _369
REMARK  147  A    between atoms: _372  and  _374
REMARK  148  A    between atoms: _374  and  _375
REMARK  149  A    between atoms: _374  and  _377
REMARK  150  A    between atoms: _377  and  _378
REMARK  151  A    between atoms: _378  and  _379
REMARK  152  A    between atoms: _379  and  _380
REMARK  153  A    between atoms: _389  and  _391
REMARK  154  A    between atoms: _391  and  _392
REMARK  155  A    between atoms: _391  and  _394
REMARK  156  A    between atoms: _394  and  _395
REMARK  157  A    between atoms: _405  and  _407
REMARK  158  A    between atoms: _407  and  _408
REMARK  159  A    between atoms: _407  and  _410
REMARK  160  A    between atoms: _410  and  _411
REMARK  161  A    between atoms: _416  and  _418
REMARK  162  A    between atoms: _418  and  _419
REMARK  163  A    between atoms: _421  and  _423
REMARK  164  A    between atoms: _423  and  _424
REMARK  165  A    between atoms: _423  and  _426
REMARK  166  A    between atoms: _429  and  _431
REMARK  167  A    between atoms: _431  and  _432
REMARK  168  A    between atoms: _435  and  _437
REMARK  169  A    between atoms: _437  and  _438
REMARK  170  A    between atoms: _437  and  _440
REMARK  171  A    between atoms: _440  and  _441
REMARK  172  A    between atoms: _446  and  _448
REMARK  173  A    between atoms: _448  and  _449
REMARK  174  A    between atoms: _448  and  _451
REMARK  175  A    between atoms: _451  and  _452
REMARK  176  A    between atoms: _452  and  _453
REMARK  177  A    between atoms: _453  and  _454
REMARK  178  A    between atoms: _454  and  _455
REMARK  179  A    between atoms: _459  and  _461
REMARK  180  A    between atoms: _461  and  _462
REMARK  181  A    between atoms: _461  and  _464
REMARK  182  A    between atoms: _464  and  _465
REMARK  183  A    between atoms: _470  and  _472
REMARK  184  A    between atoms: _472  and  _473
REMARK  185  A    between atoms: _475  and  _477
REMARK  186  A    between atoms: _477  and  _478
REMARK  187  A    between atoms: _477  and  _480
REMARK  188  A    between atoms: _480  and  _481
REMARK  189  A    between atoms: _481  and  _482
REMARK  190  A    between atoms: _482  and  _483
REMARK  191  A    between atoms: _483  and  _484
REMARK  192  A    between atoms: _488  and  _490
REMARK  193  A    between atoms: _490  and  _491
REMARK  194  A    between atoms: _490  and  _493
REMARK  195  A    between atoms: _493  and  _494
REMARK  196  A    between atoms: _494  and  _495
REMARK  197  A    between atoms: _495  and  _496
REMARK  198  A    between atoms: _505  and  _507
REMARK  199  A    between atoms: _507  and  _508
REMARK  200  A    between atoms: _507  and  _510
REMARK  201  A    between atoms: _510  and  _511
REMARK  202  A    between atoms: _516  and  _517
REMARK  203  A    between atoms: _519  and  _521
REMARK  204  A    between atoms: _521  and  _522
REMARK  205  A    between atoms: _521  and  _524
REMARK  206  A    between atoms: _524  and  _525
REMARK  207  A    between atoms: _525  and  _526
REMARK  208  A    between atoms: _526  and  _527
REMARK  209  A    between atoms: _527  and  _528
REMARK  210  A    between atoms: _532  and  _534
REMARK  211  A    between atoms: _534  and  _535
REMARK  212  A    between atoms: _534  and  _537
REMARK  213  A    between atoms: _537  and  _538
REMARK  214  A    between atoms: _540  and  _542
REMARK  215  A    between atoms: _542  and  _543
REMARK  216  A    between atoms: _542  and  _545
REMARK  217  A    between atoms: _545  and  _546
REMARK  218  A    between atoms: _549  and  _551
REMARK  219  A    between atoms: _551  and  _552
REMARK  220  A    between atoms: _551  and  _554
REMARK  221  A    between atoms: _554  and  _555
REMARK  222  A    between atoms: _555  and  _556
REMARK  223  A    between atoms: _559  and  _561
REMARK  224  A    between atoms: _561  and  _562
REMARK  225  A    between atoms: _565  and  _567
REMARK  226  A    between atoms: _567  and  _568
REMARK  227  A    between atoms: _567  and  _570
REMARK  228  A    between atoms: _570  and  _571
REMARK  229  A    between atoms: _573  and  _575
REMARK  230  A    between atoms: _575  and  _576
REMARK  231  A    between atoms: _578  and  _580
REMARK  232  A    between atoms: _580  and  _581
REMARK  233  A    between atoms: _580  and  _583
REMARK  234  A    between atoms: _583  and  _584
REMARK  235  A    between atoms: _587  and  _589
REMARK  236  A    between atoms: _589  and  _590
REMARK  237  A    between atoms: _592  and  _594
REMARK  238  A    between atoms: _594  and  _595
REMARK  239  A    between atoms: _594  and  _597
REMARK  240  A    between atoms: _597  and  _598
REMARK  241  A    between atoms: _603  and  _605
REMARK  242  A    between atoms: _605  and  _606
REMARK  243  A    between atoms: _605  and  _608
REMARK  244  A    between atoms: _608  and  _609
REMARK  245  A    between atoms: _609  and  _610
REMARK  246  A    between atoms: _617  and  _618
REMARK  247  A    between atoms: _618  and  _634
REMARK  248  A    between atoms: _619  and  _621
REMARK  249  A    between atoms: _621  and  _622
REMARK  250  A    between atoms: _622  and  _623
REMARK  251  A    between atoms: _627  and  _629
REMARK  252  A    between atoms: _629  and  _630
REMARK  253  A    between atoms: _629  and  _637
REMARK  254  A    between atoms: _630  and  _631
REMARK  255  A    between atoms: _631  and  _632
REMARK  256  A    between atoms: _632  and  _633
REMARK  257  A    between atoms: _633  and  _634
REMARK  258  A    between atoms: _639  and  _641
REMARK  259  A    between atoms: _641  and  _642
REMARK  260  A    between atoms: _641  and  _644
REMARK  261  A    between atoms: _644  and  _645
REMARK  262  A    between atoms: _648  and  _650
REMARK  263  A    between atoms: _650  and  _651
REMARK  264  A    between atoms: _653  and  _655
REMARK  265  A    between atoms: _655  and  _656
REMARK  266  A    between atoms: _659  and  _661
REMARK  267  A    between atoms: _661  and  _662
REMARK  268  A    between atoms: _661  and  _664
REMARK  269  A    between atoms: _664  and  _665
REMARK  270  A    between atoms: _670  and  _671
REMARK                            x       y       z     vdW  Elec       q    Type
REMARK                         _______ _______ _______ _____ _____    ______ ____
ROOT
ATOM      1  C   TYR A   1      33.535  32.015  20.716  0.00  0.00    +0.239 C 
ATOM      2  N   LYS A   2      32.497  32.107  21.547  0.00  0.00    -0.298 N 
ATOM      3  H   LYS A   2      32.639  32.549  22.478  0.00  0.00    +0.150 HD
ATOM      4  O   TYR A   1      33.460  31.521  19.584  0.00  0.00    -0.274 OA
ENDROOT
BRANCH   1   5
ATOM      5  CA  TYR A   1      34.865  32.574  21.219  0.00  0.00    +0.149 C 
BRANCH   5   6
ATOM      6  N   TYR A   1      34.716  33.672  22.184  0.00  0.00    -0.238 NA
ATOM      7  H   TYR A   1      34.985  33.531  23.179  0.00  0.00    +0.142 HD
ENDBRANCH   5   6
BRANCH   5   8
ATOM      8  CB  TYR A   1      35.811  31.468  21.724  0.00  0.00    +0.053 C 
BRANCH   8   9
ATOM      9  CG  TYR A   1      35.193  30.340  22.531  0.00  0.00    -0.020 A 
ATOM     10  CD2 TYR A   1      35.239  30.346  23.928  0.00  0.00    -0.001 A 
ATOM     11  CE2 TYR A   1      34.691  29.295  24.672  0.00  0.00    +0.036 A 
ATOM     12  CZ  TYR A   1      34.108  28.220  24.017  0.00  0.00    +0.134 A 
ATOM     13  CE1 TYR A   1      34.063  28.185  22.630  0.00  0.00    +0.036 A 
ATOM     14  CD1 TYR A   1      34.613  29.238  21.897  0.00  0.00    -0.001 A 
BRANCH  12  15
ATOM     15  OH  TYR A   1      33.564  27.177  24.746  0.00  0.00    -0.506 OA
ATOM     16  HH  TYR A   1      33.194  26.500  24.126  0.00  0.00    +0.292 HD
ENDBRANCH  12  15
ENDBRANCH   8   9
ENDBRANCH   5   8
ENDBRANCH   1   5
BRANCH   2  17
ATOM     17  CA  LYS A   2      31.162  31.609  21.200  0.00  0.00    +0.137 C 
BRANCH  17  18
ATOM     18  C   LYS A   2      30.429  32.583  20.259  0.00  0.00    +0.227 C 
ATOM     19  O   LYS A   2      29.391  32.250  19.684  0.00  0.00    -0.286 OA
ENDBRANCH  17  18
BRANCH  17  20
ATOM     20  CB  LYS A   2      30.345  31.322  22.471  0.00  0.00    +0.028 C 
BRANCH  20  21
ATOM     21  CG  LYS A   2      30.889  30.151  23.313  0.00  0.00    -0.000 C 
BRANCH  21  22
ATOM     22  CD  LYS A   2      30.324  30.148  24.735  0.00  0.00    -0.024 C 
BRANCH  22  23
ATOM     23  CE  LYS A   2      30.776  28.934  25.565  0.00  0.00    -0.086 C 
BRANCH  23  24
ATOM     24  NZ  LYS A   2      30.249  27.641  25.001  0.00  0.00    +0.380 N 
ATOM     25  HZ1 LYS A   2      30.577  26.849  25.589  0.00  0.00    -0.089 HD
ATOM     26  HZ2 LYS A   2      29.209  27.664  24.996  0.00  0.00    -0.089 HD
ATOM     27  HZ3 LYS A   2      30.599  27.520  24.029  0.00  0.00    -0.089 HD
ENDBRANCH  23  24
ENDBRANCH  22  23
ENDBRANCH  21  22
ENDBRANCH  20  21
ENDBRANCH  17  20
ENDBRANCH   2  17
TORSDOF 12
REMARK  Name = ../refined-set-2016/3g2k/3g2k_pocket.pdb
REMARK  270 active torsions:
REMARK  status: ('A' for Active; 'I' for Inactive)
REMARK    1  A    between atoms: _1  and  _3
REMARK    2  A    between atoms: _3  and  _4
REMARK    3  A    between atoms: _3  and  _6
REMARK    4  A    between atoms: _6  and  _7
REMARK    5  A    between atoms: _12  and  _13
REMARK    6  A    between atoms: _15  and  _17
REMARK    7  A    between atoms: _17  and  _18
REMARK    8  A    between atoms: _17  and  _20
REMARK    9  A    between atoms: _20  and  _21
REMARK   10  A    between atoms: _24  and  _26
REMARK   11  A    between atoms: _26  and  _27
REMARK   12  A    between atoms: _26  and  _29
REMARK   13  A    between atoms: _29  and  _30
REMARK   14  A    between atoms: _30  and  _31
REMARK   15  A    between atoms: _34  and  _36
REMARK   16  A    between atoms: _36  and  _37
REMARK   17  A    between atoms: _36  and  _39
REMARK   18  A    between atoms: _39  and  _40
REMARK   19  A    between atoms: _45  and  _47
REMARK   20  A    between atoms: _47  and  _48
REMARK   21  A    between atoms: _50  and  _52
REMARK   22  A    between atoms: _52  and  _53
REMARK   23  A    between atoms: _55  and  _57
REMARK   24  A    between atoms: _57  and  _58
REMARK   25  A    between atoms: _57  and  _60
REMARK   26  A    between atoms: _60  and  _61
REMARK   27  A    between atoms: _64  and  _66
REMARK   28  A    between atoms: _66  and  _67
REMARK   29  A    between atoms: _69  and  _71
REMARK   30  A    between atoms: _71  and  _72
REMARK   31  A    between atoms: _71  and  _74
REMARK   32  A    between atoms: _74  and  _75
REMARK   33  A    between atoms: _75  and  _76
REMARK   34  A    between atoms: _76  and  _77
REMARK   35  A    between atoms: _86  and  _88
REMARK   36  A    between atoms: _88  and  _89
REMARK   37  A    between atoms: _88  and  _91
REMARK   38  A    between atoms: _91  and  _92
REMARK   39  A    between atoms: _95  and  _97
REMARK   40  A    between atoms: _97  and  _98
REMARK   41  A    between atoms: _101  and  _103
REMARK   42  A    between atoms: _103  and  _104
REMARK   43  A    between atoms: _103  and  _106
REMARK   44  A    between atoms: _106  and  _107
REMARK   45  A    between atoms: _113  and  _115
REMARK   46  A    between atoms: _115  and  _116
REMARK   47  A    between atoms: _115  and  _118
REMARK   48  A    between atoms: _118  and  _119
REMARK   49  A    between atoms: _124  and  _125
REMARK   50  A    between atoms: _128  and  _129
REMARK   51  A    between atoms: _134  and  _136
REMARK   52  A    between atoms: _136  and  _137
REMARK   53  A    between atoms: _136  and  _139
REMARK   54  A    between atoms: _139  and  _140
REMARK   55  A    between atoms: _145  and  _147
REMARK   56  A    between atoms: _147  and  _148
REMARK   57  A    between atoms: _147  and  _150
REMARK   58  A    between atoms: _150  and  _151
REMARK   59  A    between atoms: _154  and  _156
REMARK   60  A    between atoms: _156  and  _157
REMARK   61  A    between atoms: _156  and  _159
REMARK   62  A    between atoms: _159  and  _160
REMARK   63  A    between atoms: _165  and  _167
REMARK   64  A    between atoms: _167  and  _168
REMARK   65  A    between atoms: _167  and  _170
REMARK   66  A    between atoms: _170  and  _171
REMARK   67  A    between atoms: _177  and  _179
REMARK   68  A    between atoms: _179  and  _180
REMARK   69  A    between atoms: _179  and  _182
REMARK   70  A    between atoms: _182  and  _183
REMARK   71  A    between atoms: _189  and  _191
REMARK   72  A    between atoms: _191  and  _192
REMARK   73  A    between atoms: _191  and  _194
REMARK   74  A    between atoms: _194  and  _195
REMARK   75  A    between atoms: _195  and  _196
REMARK   76  A    between atoms: _199  and  _201
REMARK   77  A    between atoms: _201  and  _202
REMARK   78  A    between atoms: _201  and  _204
REMARK   79  A    between atoms: _204  and  _205
REMARK   80  A    between atoms: _205  and  _206
REMARK   81  A    between atoms: _206  and  _207
REMARK   82  A    between atoms: _216  and  _218
REMARK   83  A    between atoms: _218  and  _219
REMARK   84  A    between atoms: _218  and  _221
REMARK   85  A    between atoms: _221  and  _222
REMARK   86  A    between atoms: _222  and  _223
REMARK   87  A    between atoms: _226  and  _228
REMARK   88  A    between atoms: _228  and  _229
REMARK   89  A    between atoms: _228  and  _231
REMARK   90  A    between atoms: _231  and  _232
REMARK   91  A    between atoms: _237  and  _239
REMARK   92  A    between atoms: _239  and  _240
REMARK   93  A    between atoms: _239  and  _242
REMARK   94  A    between atoms: _242  and  _243
REMARK   95  A    between atoms: _246  and  _248
REMARK   96  A    between atoms: _248  and  _249
REMARK   97  A    between atoms: _248  and  _251
REMARK   98  A    between atoms: _251  and  _252
REMARK   99  A    between atoms: _255  and  _257
REMARK  100  A    between atoms: _257  and  _258
REMARK  101  A    between atoms: _257  and  _260
REMARK  102  A    between atoms: _260  and  _261
REMARK  103  A    between atoms: _266  and  _268
REMARK  104  A    between atoms: _268  and  _269
REMARK  105  A    between atoms: _268  and  _271
REMARK  106  A    between atoms: _271  and  _272
REMARK  107  A    between atoms: _277  and  _278
REMARK  108  A    between atoms: _280  and  _282
REMARK  109  A    between atoms: _282  and  _283
REMARK  110  A    between atoms: _282  and  _285
REMARK  111  A    between atoms: _285  and  _286
REMARK  112  A    between atoms: _289  and  _291
REMARK  113  A    between atoms: _291  and  _292
REMARK  114  A    between atoms: _291  and  _294
REMARK  115  A    between atoms: _294  and  _295
REMARK  116  A    between atoms: _300  and  _302
REMARK  117  A    between atoms: _302  and  _303
REMARK  118  A    between atoms: _302  and  _305
REMARK  119  A    between atoms: _305  and  _306
REMARK  120  A    between atoms: _311  and  _313
REMARK  121  A    between atoms: _313  and  _314
REMARK  122  A    between atoms: _313  and  _316
REMARK  123  A    between atoms: _316  and  _317
REMARK  124  A    between atoms: _320  and  _322
REMARK  125  A    between atoms: _322  and  _323
REMARK  126  A    between atoms: _322  and  _325
REMARK  127  A    between atoms: _328  and  _330
REMARK  128  A    between atoms: _330  and  _331
REMARK  129  A    between atoms: _330  and  _333
REMARK  130  A    between atoms: _333  and  _334
REMARK  131  A    between atoms: _337  and  _339
REMARK  132  A    between atoms: _339  and  _340
REMARK  133  A    between atoms: _339  and  _342
REMARK  134  A    between atoms: _342  and  _343
REMARK  135  A    between atoms: _343  and  _344
REMARK  136  A    between atoms: _347  and  _349
REMARK  137  A    between atoms: _349  and  _350
REMARK  138  A    between atoms: _353  and  _355
REMARK  139  A    between atoms: _355  and  _356
REMARK  140  A    between atoms: _355  and  _358
REMARK  141  A    between atoms: _358  and  _359
REMARK  142  A    between atoms: _362  and  _364
REMARK  143  A    between atoms: _364  and  _365
REMARK  144  A    between atoms: _364  and  _367
REMARK  145  A    between atoms: _367  and  _368
REMARK  146  A    between atoms: _368  and  _369
REMARK  147  A    between atoms: _372  and  _374
REMARK  148  A    between atoms: _374  and  _375
REMARK  149  A    between atoms: _374  and  _377
REMARK  150  A    between atoms: _377  and  _378
REMARK  151  A    between atoms: _378  and  _379
REMARK  152  A    between atoms: _379  and  _380
REMARK  153  A    between atoms: _389  and  _391
REMARK  154  A    between atoms: _391  and  _392
REMARK  155  A    between atoms: _391  and  _394
REMARK  156  A    between atoms: _394  and  _395
REMARK  157  A    between atoms: _405  and  _407
REMARK  158  A    between atoms: _407  and  _408
REMARK  159  A    between atoms: _407  and  _410
REMARK  160  A    between atoms: _410  and  _411
REMARK  161  A    between atoms: _416  and  _418
REMARK  162  A    between atoms: _418  and  _419
REMARK  163  A    between atoms: _421  and  _423
REMARK  164  A    between atoms: _423  and  _424
REMARK  165  A    between atoms: _423  and  _426
REMARK  166  A    between atoms: _429  and  _431
REMARK  167  A    between atoms: _431  and  _432
REMARK  168  A    between atoms: _435  and  _437
REMARK  169  A    between atoms: _437  and  _438
REMARK  170  A    between atoms: _437  and  _440
REMARK  171  A    between atoms: _440  and  _441
REMARK  172  A    between atoms: _446  and  _448
REMARK  173  A    between atoms: _448  and  _449
REMARK  174  A    between atoms: _448  and  _451
REMARK  175  A    between atoms: _451  and  _452
REMARK  176  A    between atoms: _452  and  _453
REMARK  177  A    between atoms: _453  and  _454
REMARK  178  A    between atoms: _454  and  _455
REMARK  179  A    between atoms: _459  and  _461
REMARK  180  A    between atoms: _461  and  _462
REMARK  181  A    between atoms: _461  and  _464
REMARK  182  A    between atoms: _464  and  _465
REMARK  183  A    between atoms: _470  and  _472
REMARK  184  A    between atoms: _472  and  _473
REMARK  185  A    between atoms: _475  and  _477
REMARK  186  A    between atoms: _477  and  _478
REMARK  187  A    between atoms: _477  and  _480
REMARK  188  A    between atoms: _480  and  _481
REMARK  189  A    between atoms: _481  and  _482
REMARK  190  A    between atoms: _482  and  _483
REMARK  191  A    between atoms: _483  and  _484
REMARK  192  A    between atoms: _488  and  _490
REMARK  193  A    between atoms: _490  and  _491
REMARK  194  A    between atoms: _490  and  _493
REMARK  195  A    between atoms: _493  and  _494
REMARK  196  A    between atoms: _494  and  _495
REMARK  197  A    between atoms: _495  and  _496
REMARK  198  A    between atoms: _505  and  _507
REMARK  199  A    between atoms: _507  and  _508
REMARK  200  A    between atoms: _507  and  _510
REMARK  201  A    between atoms: _510  and  _511
REMARK  202  A    between atoms: _516  and  _517
REMARK  203  A    between atoms: _519  and  _521
REMARK  204  A    between atoms: _521  and  _522
REMARK  205  A    between atoms: _521  and  _524
REMARK  206  A    between atoms: _524  and  _525
REMARK  207  A    between atoms: _525  and  _526
REMARK  208  A    between atoms: _526  and  _527
REMARK  209  A    between atoms: _527  and  _528
REMARK  210  A    between atoms: _532  and  _534
REMARK  211  A    between atoms: _534  and  _535
REMARK  212  A    between atoms: _534  and  _537
REMARK  213  A    between atoms: _537  and  _538
REMARK  214  A    between atoms: _540  and  _542
REMARK  215  A    between atoms: _542  and  _543
REMARK  216  A    between atoms: _542  and  _545
REMARK  217  A    between atoms: _545  and  _546
REMARK  218  A    between atoms: _549  and  _551
REMARK  219  A    between atoms: _551  and  _552
REMARK  220  A    between atoms: _551  and  _554
REMARK  221  A    between atoms: _554  and  _555
REMARK  222  A    between atoms: _555  and  _556
REMARK  223  A    between atoms: _559  and  _561
REMARK  224  A    between atoms: _561  and  _562
REMARK  225  A    between atoms: _565  and  _567
REMARK  226  A    between atoms: _567  and  _568
REMARK  227  A    between atoms: _567  and  _570
REMARK  228  A    between atoms: _570  and  _571
REMARK  229  A    between atoms: _573  and  _575
REMARK  230  A    between atoms: _575  and  _576
REMARK  231  A    between atoms: _578  and  _580
REMARK  232  A    between atoms: _580  and  _581
REMARK  233  A    between atoms: _580  and  _583
REMARK  234  A    between atoms: _583  and  _584
REMARK  235  A    between atoms: _587  and  _589
REMARK  236  A    between atoms: _589  and  _590
REMARK  237  A    between atoms: _592  and  _594
REMARK  238  A    between atoms: _594  and  _595
REMARK  239  A    between atoms: _594  and  _597
REMARK  240  A    between atoms: _597  and  _598
REMARK  241  A    between atoms: _603  and  _605
REMARK  242  A    between atoms: _605  and  _606
REMARK  243  A    between atoms: _605  and  _608
REMARK  244  A    between atoms: _608  and  _609
REMARK  245  A    between atoms: _609  and  _610
REMARK  246  A    between atoms: _617  and  _618
REMARK  247  A    between atoms: _618  and  _634
REMARK  248  A    between atoms: _619  and  _621
REMARK  249  A    between atoms: _621  and  _622
REMARK  250  A    between atoms: _622  and  _623
REMARK  251  A    between atoms: _627  and  _629
REMARK  252  A    between atoms: _629  and  _630
REMARK  253  A    between atoms: _629  and  _637
REMARK  254  A    between atoms: _630  and  _631
REMARK  255  A    between atoms: _631  and  _632
REMARK  256  A    between atoms: _632  and  _633
REMARK  257  A    between atoms: _633  and  _634
REMARK  258  A    between atoms: _639  and  _641
REMARK  259  A    between atoms: _641  and  _642
REMARK  260  A    between atoms: _641  and  _644
REMARK  261  A    between atoms: _644  and  _645
REMARK  262  A    between atoms: _648  and  _650
REMARK  263  A    between atoms: _650  and  _651
REMARK  264  A    between atoms: _653  and  _655
REMARK  265  A    between atoms: _655  and  _656
REMARK  266  A    between atoms: _659  and  _661
REMARK  267  A    between atoms: _661  and  _662
REMARK  268  A    between atoms: _661  and  _664
REMARK  269  A    between atoms: _664  and  _665
REMARK  270  A    between atoms: _670  and  _671
REMARK                            x       y       z     vdW  Elec       q    Type
REMARK                         _______ _______ _______ _____ _____    ______ ____
ROOT
ATOM      1  CA  SER A   1      31.903  29.478  17.525  0.00  0.00    +0.163 C 
ENDROOT
BRANCH   1   2
ATOM      2  N   SER A   1      30.526  29.279  17.080  0.00  0.00    -0.237 NA
ATOM      3  H   SER A   1      30.001  28.451  17.427  0.00  0.00    +0.142 HD
ENDBRANCH   1   2
BRANCH   1   4
ATOM      4  C   SER A   1      32.857  29.492  16.322  0.00  0.00    +0.227 C 
ATOM      5  O   SER A   1      32.611  28.821  15.329  0.00  0.00    -0.287 OA
ENDBRANCH   1   4
BRANCH   1   6
ATOM      6  CB  SER A   1      32.289  28.353  18.471  0.00  0.00    +0.162 C 
BRANCH   6   7
ATOM      7  OG  SER A   1      32.040  27.094  17.855  0.00  0.00    -0.380 OA
ATOM      8  H   SER A   1      31.078  27.020  17.635  0.00  0.00    +0.211 HD
ENDBRANCH   6   7
ENDBRANCH   1   6
TORSDOF 4
REMARK  Name = ../refined-set-2016/3g2k/3g2k_pocket.pdb
REMARK  270 active torsions:
REMARK  status: ('A' for Active; 'I' for Inactive)
REMARK    1  A    between atoms: _1  and  _3
REMARK    2  A    between atoms: _3  and  _4
REMARK    3  A    between atoms: _3  and  _6
REMARK    4  A    between atoms: _6  and  _7
REMARK    5  A    between atoms: _12  and  _13
REMARK    6  A    between atoms: _15  and  _17
REMARK    7  A    between atoms: _17  and  _18
REMARK    8  A    between atoms: _17  and  _20
REMARK    9  A    between atoms: _20  and  _21
REMARK   10  A    between atoms: _24  and  _26
REMARK   11  A    between atoms: _26  and  _27
REMARK   12  A    between atoms: _26  and  _29
REMARK   13  A    between atoms: _29  and  _30
REMARK   14  A    between atoms: _30  and  _31
REMARK   15  A    between atoms: _34  and  _36
REMARK   16  A    between atoms: _36  and  _37
REMARK   17  A    between atoms: _36  and  _39
REMARK   18  A    between atoms: _39  and  _40
REMARK   19  A    between atoms: _45  and  _47
REMARK   20  A    between atoms: _47  and  _48
REMARK   21  A    between atoms: _50  and  _52
REMARK   22  A    between atoms: _52  and  _53
REMARK   23  A    between atoms: _55  and  _57
REMARK   24  A    between atoms: _57  and  _58
REMARK   25  A    between atoms: _57  and  _60
REMARK   26  A    between atoms: _60  and  _61
REMARK   27  A    between atoms: _64  and  _66
REMARK   28  A    between atoms: _66  and  _67
REMARK   29  A    between atoms: _69  and  _71
REMARK   30  A    between atoms: _71  and  _72
REMARK   31  A    between atoms: _71  and  _74
REMARK   32  A    between atoms: _74  and  _75
REMARK   33  A    between atoms: _75  and  _76
REMARK   34  A    between atoms: _76  and  _77
REMARK   35  A    between atoms: _86  and  _88
REMARK   36  A    between atoms: _88  and  _89
REMARK   37  A    between atoms: _88  and  _91
REMARK   38  A    between atoms: _91  and  _92
REMARK   39  A    between atoms: _95  and  _97
REMARK   40  A    between atoms: _97  and  _98
REMARK   41  A    between atoms: _101  and  _103
REMARK   42  A    between atoms: _103  and  _104
REMARK   43  A    between atoms: _103  and  _106
REMARK   44  A    between atoms: _106  and  _107
REMARK   45  A    between atoms: _113  and  _115
REMARK   46  A    between atoms: _115  and  _116
REMARK   47  A    between atoms: _115  and  _118
REMARK   48  A    between atoms: _118  and  _119
REMARK   49  A    between atoms: _124  and  _125
REMARK   50  A    between atoms: _128  and  _129
REMARK   51  A    between atoms: _134  and  _136
REMARK   52  A    between atoms: _136  and  _137
REMARK   53  A    between atoms: _136  and  _139
REMARK   54  A    between atoms: _139  and  _140
REMARK   55  A    between atoms: _145  and  _147
REMARK   56  A    between atoms: _147  and  _148
REMARK   57  A    between atoms: _147  and  _150
REMARK   58  A    between atoms: _150  and  _151
REMARK   59  A    between atoms: _154  and  _156
REMARK   60  A    between atoms: _156  and  _157
REMARK   61  A    between atoms: _156  and  _159
REMARK   62  A    between atoms: _159  and  _160
REMARK   63  A    between atoms: _165  and  _167
REMARK   64  A    between atoms: _167  and  _168
REMARK   65  A    between atoms: _167  and  _170
REMARK   66  A    between atoms: _170  and  _171
REMARK   67  A    between atoms: _177  and  _179
REMARK   68  A    between atoms: _179  and  _180
REMARK   69  A    between atoms: _179  and  _182
REMARK   70  A    between atoms: _182  and  _183
REMARK   71  A    between atoms: _189  and  _191
REMARK   72  A    between atoms: _191  and  _192
REMARK   73  A    between atoms: _191  and  _194
REMARK   74  A    between atoms: _194  and  _195
REMARK   75  A    between atoms: _195  and  _196
REMARK   76  A    between atoms: _199  and  _201
REMARK   77  A    between atoms: _201  and  _202
REMARK   78  A    between atoms: _201  and  _204
REMARK   79  A    between atoms: _204  and  _205
REMARK   80  A    between atoms: _205  and  _206
REMARK   81  A    between atoms: _206  and  _207
REMARK   82  A    between atoms: _216  and  _218
REMARK   83  A    between atoms: _218  and  _219
REMARK   84  A    between atoms: _218  and  _221
REMARK   85  A    between atoms: _221  and  _222
REMARK   86  A    between atoms: _222  and  _223
REMARK   87  A    between atoms: _226  and  _228
REMARK   88  A    between atoms: _228  and  _229
REMARK   89  A    between atoms: _228  and  _231
REMARK   90  A    between atoms: _231  and  _232
REMARK   91  A    between atoms: _237  and  _239
REMARK   92  A    between atoms: _239  and  _240
REMARK   93  A    between atoms: _239  and  _242
REMARK   94  A    between atoms: _242  and  _243
REMARK   95  A    between atoms: _246  and  _248
REMARK   96  A    between atoms: _248  and  _249
REMARK   97  A    between atoms: _248  and  _251
REMARK   98  A    between atoms: _251  and  _252
REMARK   99  A    between atoms: _255  and  _257
REMARK  100  A    between atoms: _257  and  _258
REMARK  101  A    between atoms: _257  and  _260
REMARK  102  A    between atoms: _260  and  _261
REMARK  103  A    between atoms: _266  and  _268
REMARK  104  A    between atoms: _268  and  _269
REMARK  105  A    between atoms: _268  and  _271
REMARK  106  A    between atoms: _271  and  _272
REMARK  107  A    between atoms: _277  and  _278
REMARK  108  A    between atoms: _280  and  _282
REMARK  109  A    between atoms: _282  and  _283
REMARK  110  A    between atoms: _282  and  _285
REMARK  111  A    between atoms: _285  and  _286
REMARK  112  A    between atoms: _289  and  _291
REMARK  113  A    between atoms: _291  and  _292
REMARK  114  A    between atoms: _291  and  _294
REMARK  115  A    between atoms: _294  and  _295
REMARK  116  A    between atoms: _300  and  _302
REMARK  117  A    between atoms: _302  and  _303
REMARK  118  A    between atoms: _302  and  _305
REMARK  119  A    between atoms: _305  and  _306
REMARK  120  A    between atoms: _311  and  _313
REMARK  121  A    between atoms: _313  and  _314
REMARK  122  A    between atoms: _313  and  _316
REMARK  123  A    between atoms: _316  and  _317
REMARK  124  A    between atoms: _320  and  _322
REMARK  125  A    between atoms: _322  and  _323
REMARK  126  A    between atoms: _322  and  _325
REMARK  127  A    between atoms: _328  and  _330
REMARK  128  A    between atoms: _330  and  _331
REMARK  129  A    between atoms: _330  and  _333
REMARK  130  A    between atoms: _333  and  _334
REMARK  131  A    between atoms: _337  and  _339
REMARK  132  A    between atoms: _339  and  _340
REMARK  133  A    between atoms: _339  and  _342
REMARK  134  A    between atoms: _342  and  _343
REMARK  135  A    between atoms: _343  and  _344
REMARK  136  A    between atoms: _347  and  _349
REMARK  137  A    between atoms: _349  and  _350
REMARK  138  A    between atoms: _353  and  _355
REMARK  139  A    between atoms: _355  and  _356
REMARK  140  A    between atoms: _355  and  _358
REMARK  141  A    between atoms: _358  and  _359
REMARK  142  A    between atoms: _362  and  _364
REMARK  143  A    between atoms: _364  and  _365
REMARK  144  A    between atoms: _364  and  _367
REMARK  145  A    between atoms: _367  and  _368
REMARK  146  A    between atoms: _368  and  _369
REMARK  147  A    between atoms: _372  and  _374
REMARK  148  A    between atoms: _374  and  _375
REMARK  149  A    between atoms: _374  and  _377
REMARK  150  A    between atoms: _377  and  _378
REMARK  151  A    between atoms: _378  and  _379
REMARK  152  A    between atoms: _379  and  _380
REMARK  153  A    between atoms: _389  and  _391
REMARK  154  A    between atoms: _391  and  _392
REMARK  155  A    between atoms: _391  and  _394
REMARK  156  A    between atoms: _394  and  _395
REMARK  157  A    between atoms: _405  and  _407
REMARK  158  A    between atoms: _407  and  _408
REMARK  159  A    between atoms: _407  and  _410
REMARK  160  A    between atoms: _410  and  _411
REMARK  161  A    between atoms: _416  and  _418
REMARK  162  A    between atoms: _418  and  _419
REMARK  163  A    between atoms: _421  and  _423
REMARK  164  A    between atoms: _423  and  _424
REMARK  165  A    between atoms: _423  and  _426
REMARK  166  A    between atoms: _429  and  _431
REMARK  167  A    between atoms: _431  and  _432
REMARK  168  A    between atoms: _435  and  _437
REMARK  169  A    between atoms: _437  and  _438
REMARK  170  A    between atoms: _437  and  _440
REMARK  171  A    between atoms: _440  and  _441
REMARK  172  A    between atoms: _446  and  _448
REMARK  173  A    between atoms: _448  and  _449
REMARK  174  A    between atoms: _448  and  _451
REMARK  175  A    between atoms: _451  and  _452
REMARK  176  A    between atoms: _452  and  _453
REMARK  177  A    between atoms: _453  and  _454
REMARK  178  A    between atoms: _454  and  _455
REMARK  179  A    between atoms: _459  and  _461
REMARK  180  A    between atoms: _461  and  _462
REMARK  181  A    between atoms: _461  and  _464
REMARK  182  A    between atoms: _464  and  _465
REMARK  183  A    between atoms: _470  and  _472
REMARK  184  A    between atoms: _472  and  _473
REMARK  185  A    between atoms: _475  and  _477
REMARK  186  A    between atoms: _477  and  _478
REMARK  187  A    between atoms: _477  and  _480
REMARK  188  A    between atoms: _480  and  _481
REMARK  189  A    between atoms: _481  and  _482
REMARK  190  A    between atoms: _482  and  _483
REMARK  191  A    between atoms: _483  and  _484
REMARK  192  A    between atoms: _488  and  _490
REMARK  193  A    between atoms: _490  and  _491
REMARK  194  A    between atoms: _490  and  _493
REMARK  195  A    between atoms: _493  and  _494
REMARK  196  A    between atoms: _494  and  _495
REMARK  197  A    between atoms: _495  and  _496
REMARK  198  A    between atoms: _505  and  _507
REMARK  199  A    between atoms: _507  and  _508
REMARK  200  A    between atoms: _507  and  _510
REMARK  201  A    between atoms: _510  and  _511
REMARK  202  A    between atoms: _516  and  _517
REMARK  203  A    between atoms: _519  and  _521
REMARK  204  A    between atoms: _521  and  _522
REMARK  205  A    between atoms: _521  and  _524
REMARK  206  A    between atoms: _524  and  _525
REMARK  207  A    between atoms: _525  and  _526
REMARK  208  A    between atoms: _526  and  _527
REMARK  209  A    between atoms: _527  and  _528
REMARK  210  A    between atoms: _532  and  _534
REMARK  211  A    between atoms: _534  and  _535
REMARK  212  A    between atoms: _534  and  _537
REMARK  213  A    between atoms: _537  and  _538
REMARK  214  A    between atoms: _540  and  _542
REMARK  215  A    between atoms: _542  and  _543
REMARK  216  A    between atoms: _542  and  _545
REMARK  217  A    between atoms: _545  and  _546
REMARK  218  A    between atoms: _549  and  _551
REMARK  219  A    between atoms: _551  and  _552
REMARK  220  A    between atoms: _551  and  _554
REMARK  221  A    between atoms: _554  and  _555
REMARK  222  A    between atoms: _555  and  _556
REMARK  223  A    between atoms: _559  and  _561
REMARK  224  A    between atoms: _561  and  _562
REMARK  225  A    between atoms: _565  and  _567
REMARK  226  A    between atoms: _567  and  _568
REMARK  227  A    between atoms: _567  and  _570
REMARK  228  A    between atoms: _570  and  _571
REMARK  229  A    between atoms: _573  and  _575
REMARK  230  A    between atoms: _575  and  _576
REMARK  231  A    between atoms: _578  and  _580
REMARK  232  A    between atoms: _580  and  _581
REMARK  233  A    between atoms: _580  and  _583
REMARK  234  A    between atoms: _583  and  _584
REMARK  235  A    between atoms: _587  and  _589
REMARK  236  A    between atoms: _589  and  _590
REMARK  237  A    between atoms: _592  and  _594
REMARK  238  A    between atoms: _594  and  _595
REMARK  239  A    between atoms: _594  and  _597
REMARK  240  A    between atoms: _597  and  _598
REMARK  241  A    between atoms: _603  and  _605
REMARK  242  A    between atoms: _605  and  _606
REMARK  243  A    between atoms: _605  and  _608
REMARK  244  A    between atoms: _608  and  _609
REMARK  245  A    between atoms: _609  and  _610
REMARK  246  A    between atoms: _617  and  _618
REMARK  247  A    between atoms: _618  and  _634
REMARK  248  A    between atoms: _619  and  _621
REMARK  249  A    between atoms: _621  and  _622
REMARK  250  A    between atoms: _622  and  _623
REMARK  251  A    between atoms: _627  and  _629
REMARK  252  A    between atoms: _629  and  _630
REMARK  253  A    between atoms: _629  and  _637
REMARK  254  A    between atoms: _630  and  _631
REMARK  255  A    between atoms: _631  and  _632
REMARK  256  A    between atoms: _632  and  _633
REMARK  257  A    between atoms: _633  and  _634
REMARK  258  A    between atoms: _639  and  _641
REMARK  259  A    between atoms: _641  and  _642
REMARK  260  A    between atoms: _641  and  _644
REMARK  261  A    between atoms: _644  and  _645
REMARK  262  A    between atoms: _648  and  _650
REMARK  263  A    between atoms: _650  and  _651
REMARK  264  A    between atoms: _653  and  _655
REMARK  265  A    between atoms: _655  and  _656
REMARK  266  A    between atoms: _659  and  _661
REMARK  267  A    between atoms: _661  and  _662
REMARK  268  A    between atoms: _661  and  _664
REMARK  269  A    between atoms: _664  and  _665
REMARK  270  A    between atoms: _670  and  _671
REMARK                            x       y       z     vdW  Elec       q    Type
REMARK                         _______ _______ _______ _____ _____    ______ ____
ROOT
ATOM      1  CA  GLY A   7      23.873  22.422  23.990  0.00  0.00    +0.176 C 
ENDROOT
BRANCH   1   2
ATOM      2  C   GLY A   7      23.382  22.103  22.586  0.00  0.00    +0.243 C 
ATOM      3  O   GLY A   7      22.182  21.872  22.379  0.00  0.00    -0.273 OA
ATOM      4  N   ASN A   8      24.311  22.078  21.625  0.00  0.00    -0.297 N 
ATOM      5  H   ASN A   8      25.287  22.347  21.864  0.00  0.00    +0.150 HD
BRANCH   4   6
ATOM      6  CA  ASN A   8      24.003  21.685  20.244  0.00  0.00    +0.158 C 
BRANCH   6   7
ATOM      7  C   ASN A   8      23.202  20.379  20.133  0.00  0.00    +0.241 C 
ATOM      8  N   MET A   9      23.624  19.370  20.894  0.00  0.00    -0.297 N 
ATOM      9  H   MET A   9      24.443  19.525  21.516  0.00  0.00    +0.150 HD
ATOM     10  O   ASN A   8      22.215  20.305  19.390  0.00  0.00    -0.273 OA
BRANCH   8  11
ATOM     11  CA  MET A   9      22.987  18.057  20.893  0.00  0.00    +0.149 C 
BRANCH  11  12
ATOM     12  C   MET A   9      21.577  18.105  21.479  0.00  0.00    +0.241 C 
ATOM     13  N   UNK A  10      21.406  18.867  22.563  0.00  0.00    -0.298 N 
ATOM     14  H   UNK A  10      22.238  19.329  22.983  0.00  0.00    +0.150 HD
ATOM     15  O   MET A   9      20.665  17.468  20.944  0.00  0.00    -0.273 OA
BRANCH  13  16
ATOM     16  C   UNK A  10      20.092  19.080  23.187  0.00  0.00    +0.137 C 
BRANCH  16  17
ATOM     17  C   UNK A  10      19.051  19.629  22.200  0.00  0.00    +0.227 C 
ATOM     18  O   UNK A  10      17.911  19.145  22.156  0.00  0.00    -0.286 OA
ENDBRANCH  16  17
BRANCH  16  19
ATOM     19  C   UNK A  10      20.209  20.005  24.410  0.00  0.00    +0.028 C 
BRANCH  19  20
ATOM     20  C   UNK A  10      21.268  19.587  25.435  0.00  0.00    -0.000 C 
BRANCH  20  21
ATOM     21  C   UNK A  10      21.372  20.589  26.588  0.00  0.00    -0.023 C 
BRANCH  21  22
ATOM     22  C   UNK A  10      22.641  20.359  27.425  0.00  0.00    -0.081 C 
BRANCH  22  23
ATOM     23  N   UNK A  10      22.879  21.468  28.400  0.00  0.00    +0.387 N 
ATOM     24  H   UNK A  10      22.084  22.137  28.358  0.00  0.00    -0.084 HD
ATOM     25  H   UNK A  10      22.946  21.071  29.359  0.00  0.00    -0.084 HD
BRANCH  23  26
ATOM     26  C   UNK A  10      24.015  22.116  28.111  0.00  0.00    -0.051 C 
BRANCH  26  27
ATOM     27  C   UNK A  10      24.227  23.362  28.949  0.00  0.00    -0.007 C 
ATOM     28  C   UNK A  10      25.356  24.168  28.721  0.00  0.00    +0.023 C 
ATOM     29  C   UNK A  10      25.569  25.326  29.463  0.00  0.00    +0.091 C 
ATOM     30  N   UNK A  10      24.678  25.678  30.454  0.00  0.00    -0.263 NA
ATOM     31  C   UNK A  10      23.570  24.893  30.709  0.00  0.00    +0.164 C 
ATOM     32  C   UNK A  10      22.632  25.314  31.803  0.00  0.00    +0.035 C 
ATOM     33  C   UNK A  10      23.328  23.732  29.965  0.00  0.00    +0.189 C 
ATOM     34  O   UNK A  10      22.323  23.044  30.216  0.00  0.00    -0.290 OA
BRANCH  28  35
ATOM     35  C   UNK A  10      26.345  23.855  27.634  0.00  0.00    +0.181 C 
BRANCH  35  36
ATOM     36  O   UNK A  10      26.011  24.484  26.372  0.00  0.00    -0.265 OA
BRANCH  36  37
ATOM     37  P   UNK A  10      27.094  24.760  25.206  0.00  0.00    +0.533 P 
ATOM     38  O   UNK A  10      27.599  23.425  24.806  0.00  0.00    -0.115 OA
ATOM     39  O   UNK A  10      28.119  25.612  25.836  0.00  0.00    -0.115 OA
ATOM     40  O   UNK A  10      26.241  25.441  24.215  0.00  0.00    -0.222 OA
ENDBRANCH  36  37
ENDBRANCH  35  36
ENDBRANCH  28  35
ENDBRANCH  26  27
ENDBRANCH  23  26
ENDBRANCH  22  23
ENDBRANCH  21  22
ENDBRANCH  20  21
ENDBRANCH  19  20
ENDBRANCH  16  19
ENDBRANCH  13  16
ENDBRANCH  11  12
BRANCH  11  41
ATOM     41  CB  MET A   9      23.846  17.048  21.655  0.00  0.00    +0.041 C 
BRANCH  41  42
ATOM     42  CG  MET A   9      25.260  16.916  21.107  0.00  0.00    +0.060 C 
BRANCH  42  43
ATOM     43  SD  MET A   9      26.309  16.000  22.237  0.00  0.00    -0.139 S 
ATOM     44  CE  MET A   9      27.915  16.208  21.464  0.00  0.00    +0.069 C 
ENDBRANCH  42  43
ENDBRANCH  41  42
ENDBRANCH  11  41
ENDBRANCH   8  11
ENDBRANCH   6   7
BRANCH   6  45
ATOM     45  CB  ASN A   8      25.266  21.657  19.346  0.00  0.00    +0.114 C 
BRANCH  45  46
ATOM     46  CG  ASN A   8      26.437  20.838  19.930  0.00  0.00    +0.222 C 
ATOM     47  ND2 ASN A   8      26.245  20.222  21.094  0.00  0.00    -0.329 N 
ATOM     48 HD21 ASN A   8      25.331  20.306  21.582  0.00  0.00    +0.145 HD
ATOM     49 HD22 ASN A   8      27.009  19.656  21.515  0.00  0.00    +0.145 HD
ATOM     50  OD1 ASN A   8      27.512  20.766  19.310  0.00  0.00    -0.275 OA
ENDBRANCH  45  46
ENDBRANCH   6  45
ENDBRANCH   4   6
ENDBRANCH   1   2
BRANCH   1  52
ATOM     51  C   THR A   6      25.202  20.370  24.123  0.00  0.00    +0.243 C 
ATOM     52  N   GLY A   7      25.100  21.689  24.286  0.00  0.00    -0.295 N 
ATOM     53  H   GLY A   7      25.925  22.215  24.637  0.00  0.00    +0.150 HD
ATOM     54  O   THR A   6      24.237  19.639  23.856  0.00  0.00    -0.273 OA
BRANCH  51  55
ATOM     55  CA  THR A   6      26.603  19.782  24.274  0.00  0.00    +0.176 C 
BRANCH  55  57
ATOM     56  C   GLY A   5      28.634  20.522  23.112  0.00  0.00    +0.243 C 
ATOM     57  N   THR A   6      27.615  20.789  23.928  0.00  0.00    -0.295 N 
ATOM     58  H   THR A   6      27.533  21.743  24.334  0.00  0.00    +0.150 HD
ATOM     59  O   GLY A   5      28.894  19.382  22.710  0.00  0.00    -0.273 OA
BRANCH  56  60
ATOM     60  CA  GLY A   5      29.522  21.693  22.721  0.00  0.00    +0.176 C 
BRANCH  60  62
ATOM     61  C   SER A   4      31.285  20.600  21.442  0.00  0.00    +0.243 C 
ATOM     62  N   GLY A   5      30.879  21.187  22.567  0.00  0.00    -0.295 N 
ATOM     63  H   GLY A   5      31.549  21.287  23.356  0.00  0.00    +0.150 HD
ATOM     64  O   SER A   4      30.683  20.690  20.360  0.00  0.00    -0.273 OA
BRANCH  61  65
ATOM     65  CA  SER A   4      32.579  19.814  21.543  0.00  0.00    +0.178 C 
BRANCH  65  67
ATOM     66  C   ALA A   3      34.881  20.549  21.459  0.00  0.00    +0.241 C 
ATOM     67  N   SER A   4      33.671  20.659  21.996  0.00  0.00    -0.295 N 
ATOM     68  H   SER A   4      33.503  21.357  22.748  0.00  0.00    +0.150 HD
ATOM     69  O   ALA A   3      35.150  19.708  20.599  0.00  0.00    -0.273 OA
BRANCH  66  70
ATOM     70  CA  ALA A   3      35.947  21.545  21.946  0.00  0.00    +0.149 C 
ATOM     71  CB  ALA A   3      36.453  21.165  23.329  0.00  0.00    +0.031 C 
BRANCH  70  73
ATOM     72  C   GLU A   2      34.890  23.449  20.835  0.00  0.00    +0.241 C 
ATOM     73  N   ALA A   3      35.469  22.935  21.922  0.00  0.00    -0.297 N 
ATOM     74  H   ALA A   3      35.584  23.529  22.768  0.00  0.00    +0.150 HD
ATOM     75  O   GLU A   2      34.672  22.788  19.830  0.00  0.00    -0.273 OA
BRANCH  72  76
ATOM     76  CA  GLU A   2      34.517  24.928  20.867  0.00  0.00    +0.149 C 
BRANCH  76  79
ATOM     77  C   THR A   1      36.611  26.134  20.507  0.00  0.00    +0.241 C 
ATOM     78  O   THR A   1      36.915  26.033  21.697  0.00  0.00    -0.274 OA
ATOM     79  N   GLU A   2      35.462  25.659  20.016  0.00  0.00    -0.297 N 
ATOM     80  H   GLU A   2      35.234  25.810  19.013  0.00  0.00    +0.150 HD
BRANCH  77  81
ATOM     81  CA  THR A   1      37.560  26.841  19.534  0.00  0.00    +0.172 C 
BRANCH  81  82
ATOM     82  N   THR A   1      37.598  26.282  18.177  0.00  0.00    -0.236 NA
ATOM     83  H   THR A   1      36.767  26.378  17.559  0.00  0.00    +0.142 HD
ENDBRANCH  81  82
BRANCH  81  84
ATOM     84  CB  THR A   1      37.245  28.352  19.523  0.00  0.00    +0.135 C 
ATOM     85  CG2 THR A   1      38.291  29.125  18.710  0.00  0.00    +0.034 C 
BRANCH  84  86
ATOM     86  OG1 THR A   1      35.944  28.574  18.964  0.00  0.00    -0.383 OA
ATOM     87  HG1 THR A   1      35.921  28.228  18.037  0.00  0.00    +0.210 HD
ENDBRANCH  84  86
ENDBRANCH  81  84
ENDBRANCH  77  81
ENDBRANCH  76  79
BRANCH  76  88
ATOM     88  CB  GLU A   2      33.074  25.136  20.386  0.00  0.00    +0.041 C 
BRANCH  88  89
ATOM     89  CG  GLU A   2      31.999  24.610  21.335  0.00  0.00    +0.116 C 
BRANCH  89  90
ATOM     90  CD  GLU A   2      31.819  25.494  22.554  0.00  0.00    +0.365 C 
ATOM     91  OE2 GLU A   2      32.404  25.175  23.609  0.00  0.00    -0.246 OA
ATOM     92  OE1 GLU A   2      31.110  26.522  22.454  0.00  0.00    -0.246 OA
ENDBRANCH  89  90
ENDBRANCH  88  89
ENDBRANCH  76  88
ENDBRANCH  72  76
ENDBRANCH  70  73
ENDBRANCH  66  70
ENDBRANCH  65  67
BRANCH  65  93
ATOM     93  CB  SER A   4      32.408  18.616  22.482  0.00  0.00    +0.166 C 
BRANCH  93  94
ATOM     94  OG  SER A   4      31.178  17.950  22.262  0.00  0.00    -0.380 OA
ATOM     95  H   SER A   4      30.430  18.580  22.420  0.00  0.00    +0.211 HD
ENDBRANCH  93  94
ENDBRANCH  65  93
ENDBRANCH  61  65
ENDBRANCH  60  62
ENDBRANCH  56  60
ENDBRANCH  55  57
BRANCH  55  96
ATOM     96  CB  THR A   6      26.774  19.223  25.702  0.00  0.00    +0.137 C 
ATOM     97  CG2 THR A   6      28.037  18.381  25.813  0.00  0.00    +0.034 C 
BRANCH  96  98
ATOM     98  OG1 THR A   6      26.831  20.308  26.632  0.00  0.00    -0.382 OA
ATOM     99  HG1 THR A   6      26.941  19.950  27.549  0.00  0.00    +0.210 HD
ENDBRANCH  96  98
ENDBRANCH  55  96
ENDBRANCH  51  55
ENDBRANCH   1  52
TORSDOF 44
REMARK  Name = ../refined-set-2016/3g2k/3g2k_pocket.pdb
REMARK  270 active torsions:
REMARK  status: ('A' for Active; 'I' for Inactive)
REMARK    1  A    between atoms: _1  and  _3
REMARK    2  A    between atoms: _3  and  _4
REMARK    3  A    between atoms: _3  and  _6
REMARK    4  A    between atoms: _6  and  _7
REMARK    5  A    between atoms: _12  and  _13
REMARK    6  A    between atoms: _15  and  _17
REMARK    7  A    between atoms: _17  and  _18
REMARK    8  A    between atoms: _17  and  _20
REMARK    9  A    between atoms: _20  and  _21
REMARK   10  A    between atoms: _24  and  _26
REMARK   11  A    between atoms: _26  and  _27
REMARK   12  A    between atoms: _26  and  _29
REMARK   13  A    between atoms: _29  and  _30
REMARK   14  A    between atoms: _30  and  _31
REMARK   15  A    between atoms: _34  and  _36
REMARK   16  A    between atoms: _36  and  _37
REMARK   17  A    between atoms: _36  and  _39
REMARK   18  A    between atoms: _39  and  _40
REMARK   19  A    between atoms: _45  and  _47
REMARK   20  A    between atoms: _47  and  _48
REMARK   21  A    between atoms: _50  and  _52
REMARK   22  A    between atoms: _52  and  _53
REMARK   23  A    between atoms: _55  and  _57
REMARK   24  A    between atoms: _57  and  _58
REMARK   25  A    between atoms: _57  and  _60
REMARK   26  A    between atoms: _60  and  _61
REMARK   27  A    between atoms: _64  and  _66
REMARK   28  A    between atoms: _66  and  _67
REMARK   29  A    between atoms: _69  and  _71
REMARK   30  A    between atoms: _71  and  _72
REMARK   31  A    between atoms: _71  and  _74
REMARK   32  A    between atoms: _74  and  _75
REMARK   33  A    between atoms: _75  and  _76
REMARK   34  A    between atoms: _76  and  _77
REMARK   35  A    between atoms: _86  and  _88
REMARK   36  A    between atoms: _88  and  _89
REMARK   37  A    between atoms: _88  and  _91
REMARK   38  A    between atoms: _91  and  _92
REMARK   39  A    between atoms: _95  and  _97
REMARK   40  A    between atoms: _97  and  _98
REMARK   41  A    between atoms: _101  and  _103
REMARK   42  A    between atoms: _103  and  _104
REMARK   43  A    between atoms: _103  and  _106
REMARK   44  A    between atoms: _106  and  _107
REMARK   45  A    between atoms: _113  and  _115
REMARK   46  A    between atoms: _115  and  _116
REMARK   47  A    between atoms: _115  and  _118
REMARK   48  A    between atoms: _118  and  _119
REMARK   49  A    between atoms: _124  and  _125
REMARK   50  A    between atoms: _128  and  _129
REMARK   51  A    between atoms: _134  and  _136
REMARK   52  A    between atoms: _136  and  _137
REMARK   53  A    between atoms: _136  and  _139
REMARK   54  A    between atoms: _139  and  _140
REMARK   55  A    between atoms: _145  and  _147
REMARK   56  A    between atoms: _147  and  _148
REMARK   57  A    between atoms: _147  and  _150
REMARK   58  A    between atoms: _150  and  _151
REMARK   59  A    between atoms: _154  and  _156
REMARK   60  A    between atoms: _156  and  _157
REMARK   61  A    between atoms: _156  and  _159
REMARK   62  A    between atoms: _159  and  _160
REMARK   63  A    between atoms: _165  and  _167
REMARK   64  A    between atoms: _167  and  _168
REMARK   65  A    between atoms: _167  and  _170
REMARK   66  A    between atoms: _170  and  _171
REMARK   67  A    between atoms: _177  and  _179
REMARK   68  A    between atoms: _179  and  _180
REMARK   69  A    between atoms: _179  and  _182
REMARK   70  A    between atoms: _182  and  _183
REMARK   71  A    between atoms: _189  and  _191
REMARK   72  A    between atoms: _191  and  _192
REMARK   73  A    between atoms: _191  and  _194
REMARK   74  A    between atoms: _194  and  _195
REMARK   75  A    between atoms: _195  and  _196
REMARK   76  A    between atoms: _199  and  _201
REMARK   77  A    between atoms: _201  and  _202
REMARK   78  A    between atoms: _201  and  _204
REMARK   79  A    between atoms: _204  and  _205
REMARK   80  A    between atoms: _205  and  _206
REMARK   81  A    between atoms: _206  and  _207
REMARK   82  A    between atoms: _216  and  _218
REMARK   83  A    between atoms: _218  and  _219
REMARK   84  A    between atoms: _218  and  _221
REMARK   85  A    between atoms: _221  and  _222
REMARK   86  A    between atoms: _222  and  _223
REMARK   87  A    between atoms: _226  and  _228
REMARK   88  A    between atoms: _228  and  _229
REMARK   89  A    between atoms: _228  and  _231
REMARK   90  A    between atoms: _231  and  _232
REMARK   91  A    between atoms: _237  and  _239
REMARK   92  A    between atoms: _239  and  _240
REMARK   93  A    between atoms: _239  and  _242
REMARK   94  A    between atoms: _242  and  _243
REMARK   95  A    between atoms: _246  and  _248
REMARK   96  A    between atoms: _248  and  _249
REMARK   97  A    between atoms: _248  and  _251
REMARK   98  A    between atoms: _251  and  _252
REMARK   99  A    between atoms: _255  and  _257
REMARK  100  A    between atoms: _257  and  _258
REMARK  101  A    between atoms: _257  and  _260
REMARK  102  A    between atoms: _260  and  _261
REMARK  103  A    between atoms: _266  and  _268
REMARK  104  A    between atoms: _268  and  _269
REMARK  105  A    between atoms: _268  and  _271
REMARK  106  A    between atoms: _271  and  _272
REMARK  107  A    between atoms: _277  and  _278
REMARK  108  A    between atoms: _280  and  _282
REMARK  109  A    between atoms: _282  and  _283
REMARK  110  A    between atoms: _282  and  _285
REMARK  111  A    between atoms: _285  and  _286
REMARK  112  A    between atoms: _289  and  _291
REMARK  113  A    between atoms: _291  and  _292
REMARK  114  A    between atoms: _291  and  _294
REMARK  115  A    between atoms: _294  and  _295
REMARK  116  A    between atoms: _300  and  _302
REMARK  117  A    between atoms: _302  and  _303
REMARK  118  A    between atoms: _302  and  _305
REMARK  119  A    between atoms: _305  and  _306
REMARK  120  A    between atoms: _311  and  _313
REMARK  121  A    between atoms: _313  and  _314
REMARK  122  A    between atoms: _313  and  _316
REMARK  123  A    between atoms: _316  and  _317
REMARK  124  A    between atoms: _320  and  _322
REMARK  125  A    between atoms: _322  and  _323
REMARK  126  A    between atoms: _322  and  _325
REMARK  127  A    between atoms: _328  and  _330
REMARK  128  A    between atoms: _330  and  _331
REMARK  129  A    between atoms: _330  and  _333
REMARK  130  A    between atoms: _333  and  _334
REMARK  131  A    between atoms: _337  and  _339
REMARK  132  A    between atoms: _339  and  _340
REMARK  133  A    between atoms: _339  and  _342
REMARK  134  A    between atoms: _342  and  _343
REMARK  135  A    between atoms: _343  and  _344
REMARK  136  A    between atoms: _347  and  _349
REMARK  137  A    between atoms: _349  and  _350
REMARK  138  A    between atoms: _353  and  _355
REMARK  139  A    between atoms: _355  and  _356
REMARK  140  A    between atoms: _355  and  _358
REMARK  141  A    between atoms: _358  and  _359
REMARK  142  A    between atoms: _362  and  _364
REMARK  143  A    between atoms: _364  and  _365
REMARK  144  A    between atoms: _364  and  _367
REMARK  145  A    between atoms: _367  and  _368
REMARK  146  A    between atoms: _368  and  _369
REMARK  147  A    between atoms: _372  and  _374
REMARK  148  A    between atoms: _374  and  _375
REMARK  149  A    between atoms: _374  and  _377
REMARK  150  A    between atoms: _377  and  _378
REMARK  151  A    between atoms: _378  and  _379
REMARK  152  A    between atoms: _379  and  _380
REMARK  153  A    between atoms: _389  and  _391
REMARK  154  A    between atoms: _391  and  _392
REMARK  155  A    between atoms: _391  and  _394
REMARK  156  A    between atoms: _394  and  _395
REMARK  157  A    between atoms: _405  and  _407
REMARK  158  A    between atoms: _407  and  _408
REMARK  159  A    between atoms: _407  and  _410
REMARK  160  A    between atoms: _410  and  _411
REMARK  161  A    between atoms: _416  and  _418
REMARK  162  A    between atoms: _418  and  _419
REMARK  163  A    between atoms: _421  and  _423
REMARK  164  A    between atoms: _423  and  _424
REMARK  165  A    between atoms: _423  and  _426
REMARK  166  A    between atoms: _429  and  _431
REMARK  167  A    between atoms: _431  and  _432
REMARK  168  A    between atoms: _435  and  _437
REMARK  169  A    between atoms: _437  and  _438
REMARK  170  A    between atoms: _437  and  _440
REMARK  171  A    between atoms: _440  and  _441
REMARK  172  A    between atoms: _446  and  _448
REMARK  173  A    between atoms: _448  and  _449
REMARK  174  A    between atoms: _448  and  _451
REMARK  175  A    between atoms: _451  and  _452
REMARK  176  A    between atoms: _452  and  _453
REMARK  177  A    between atoms: _453  and  _454
REMARK  178  A    between atoms: _454  and  _455
REMARK  179  A    between atoms: _459  and  _461
REMARK  180  A    between atoms: _461  and  _462
REMARK  181  A    between atoms: _461  and  _464
REMARK  182  A    between atoms: _464  and  _465
REMARK  183  A    between atoms: _470  and  _472
REMARK  184  A    between atoms: _472  and  _473
REMARK  185  A    between atoms: _475  and  _477
REMARK  186  A    between atoms: _477  and  _478
REMARK  187  A    between atoms: _477  and  _480
REMARK  188  A    between atoms: _480  and  _481
REMARK  189  A    between atoms: _481  and  _482
REMARK  190  A    between atoms: _482  and  _483
REMARK  191  A    between atoms: _483  and  _484
REMARK  192  A    between atoms: _488  and  _490
REMARK  193  A    between atoms: _490  and  _491
REMARK  194  A    between atoms: _490  and  _493
REMARK  195  A    between atoms: _493  and  _494
REMARK  196  A    between atoms: _494  and  _495
REMARK  197  A    between atoms: _495  and  _496
REMARK  198  A    between atoms: _505  and  _507
REMARK  199  A    between atoms: _507  and  _508
REMARK  200  A    between atoms: _507  and  _510
REMARK  201  A    between atoms: _510  and  _511
REMARK  202  A    between atoms: _516  and  _517
REMARK  203  A    between atoms: _519  and  _521
REMARK  204  A    between atoms: _521  and  _522
REMARK  205  A    between atoms: _521  and  _524
REMARK  206  A    between atoms: _524  and  _525
REMARK  207  A    between atoms: _525  and  _526
REMARK  208  A    between atoms: _526  and  _527
REMARK  209  A    between atoms: _527  and  _528
REMARK  210  A    between atoms: _532  and  _534
REMARK  211  A    between atoms: _534  and  _535
REMARK  212  A    between atoms: _534  and  _537
REMARK  213  A    between atoms: _537  and  _538
REMARK  214  A    between atoms: _540  and  _542
REMARK  215  A    between atoms: _542  and  _543
REMARK  216  A    between atoms: _542  and  _545
REMARK  217  A    between atoms: _545  and  _546
REMARK  218  A    between atoms: _549  and  _551
REMARK  219  A    between atoms: _551  and  _552
REMARK  220  A    between atoms: _551  and  _554
REMARK  221  A    between atoms: _554  and  _555
REMARK  222  A    between atoms: _555  and  _556
REMARK  223  A    between atoms: _559  and  _561
REMARK  224  A    between atoms: _561  and  _562
REMARK  225  A    between atoms: _565  and  _567
REMARK  226  A    between atoms: _567  and  _568
REMARK  227  A    between atoms: _567  and  _570
REMARK  228  A    between atoms: _570  and  _571
REMARK  229  A    between atoms: _573  and  _575
REMARK  230  A    between atoms: _575  and  _576
REMARK  231  A    between atoms: _578  and  _580
REMARK  232  A    between atoms: _580  and  _581
REMARK  233  A    between atoms: _580  and  _583
REMARK  234  A    between atoms: _583  and  _584
REMARK  235  A    between atoms: _587  and  _589
REMARK  236  A    between atoms: _589  and  _590
REMARK  237  A    between atoms: _592  and  _594
REMARK  238  A    between atoms: _594  and  _595
REMARK  239  A    between atoms: _594  and  _597
REMARK  240  A    between atoms: _597  and  _598
REMARK  241  A    between atoms: _603  and  _605
REMARK  242  A    between atoms: _605  and  _606
REMARK  243  A    between atoms: _605  and  _608
REMARK  244  A    between atoms: _608  and  _609
REMARK  245  A    between atoms: _609  and  _610
REMARK  246  A    between atoms: _617  and  _618
REMARK  247  A    between atoms: _618  and  _634
REMARK  248  A    between atoms: _619  and  _621
REMARK  249  A    between atoms: _621  and  _622
REMARK  250  A    between atoms: _622  and  _623
REMARK  251  A    between atoms: _627  and  _629
REMARK  252  A    between atoms: _629  and  _630
REMARK  253  A    between atoms: _629  and  _637
REMARK  254  A    between atoms: _630  and  _631
REMARK  255  A    between atoms: _631  and  _632
REMARK  256  A    between atoms: _632  and  _633
REMARK  257  A    between atoms: _633  and  _634
REMARK  258  A    between atoms: _639  and  _641
REMARK  259  A    between atoms: _641  and  _642
REMARK  260  A    between atoms: _641  and  _644
REMARK  261  A    between atoms: _644  and  _645
REMARK  262  A    between atoms: _648  and  _650
REMARK  263  A    between atoms: _650  and  _651
REMARK  264  A    between atoms: _653  and  _655
REMARK  265  A    between atoms: _655  and  _656
REMARK  266  A    between atoms: _659  and  _661
REMARK  267  A    between atoms: _661  and  _662
REMARK  268  A    between atoms: _661  and  _664
REMARK  269  A    between atoms: _664  and  _665
REMARK  270  A    between atoms: _670  and  _671
REMARK                            x       y       z     vdW  Elec       q    Type
REMARK                         _______ _______ _______ _____ _____    ______ ____
ROOT
ATOM      1  C   ASP A   1      32.853  22.172  15.951  0.00  0.00    +0.239 C 
ATOM      2  N   GLY A   2      33.752  21.652  16.787  0.00  0.00    -0.296 N 
ATOM      3  H   GLY A   2      34.745  21.951  16.708  0.00  0.00    +0.150 HD
ATOM      4  O   ASP A   1      31.666  21.825  15.934  0.00  0.00    -0.274 OA
ENDROOT
BRANCH   1   5
ATOM      5  CA  ASP A   1      33.371  23.221  14.968  0.00  0.00    +0.156 C 
BRANCH   5   6
ATOM      6  N   ASP A   1      32.601  23.175  13.725  0.00  0.00    -0.238 NA
ATOM      7  H   ASP A   1      31.563  23.158  13.784  0.00  0.00    +0.142 HD
ENDBRANCH   5   6
BRANCH   5   8
ATOM      8  CB  ASP A   1      33.296  24.621  15.595  0.00  0.00    +0.140 C 
BRANCH   8   9
ATOM      9  CG  ASP A   1      34.408  24.876  16.608  0.00  0.00    +0.367 C 
ATOM     10  OD2 ASP A   1      34.265  25.808  17.420  0.00  0.00    -0.246 OA
ATOM     11  OD1 ASP A   1      35.422  24.141  16.603  0.00  0.00    -0.246 OA
ENDBRANCH   8   9
ENDBRANCH   5   8
ENDBRANCH   1   5
BRANCH   2  12
ATOM     12  CA  GLY A   2      33.387  20.674  17.812  0.00  0.00    +0.176 C 
BRANCH  12  13
ATOM     13  C   GLY A   2      32.508  19.556  17.289  0.00  0.00    +0.243 C 
ATOM     14  N   ALA A   3      31.452  19.252  18.035  0.00  0.00    -0.298 N 
ATOM     15  H   ALA A   3      31.255  19.808  18.892  0.00  0.00    +0.150 HD
ATOM     16  O   GLY A   2      32.768  18.989  16.217  0.00  0.00    -0.273 OA
BRANCH  14  17
ATOM     17  CA  ALA A   3      30.561  18.150  17.674  0.00  0.00    +0.137 C 
ATOM     18  CB  ALA A   3      29.768  17.685  18.881  0.00  0.00    +0.030 C 
BRANCH  17  19
ATOM     19  C   ALA A   3      29.624  18.468  16.502  0.00  0.00    +0.227 C 
ATOM     20  O   ALA A   3      28.995  17.547  15.959  0.00  0.00    -0.286 OA
ENDBRANCH  17  19
ENDBRANCH  14  17
ENDBRANCH  12  13
ENDBRANCH   2  12
TORSDOF 8
REMARK  Name = ../refined-set-2016/3g2k/3g2k_pocket.pdb
REMARK  270 active torsions:
REMARK  status: ('A' for Active; 'I' for Inactive)
REMARK    1  A    between atoms: _1  and  _3
REMARK    2  A    between atoms: _3  and  _4
REMARK    3  A    between atoms: _3  and  _6
REMARK    4  A    between atoms: _6  and  _7
REMARK    5  A    between atoms: _12  and  _13
REMARK    6  A    between atoms: _15  and  _17
REMARK    7  A    between atoms: _17  and  _18
REMARK    8  A    between atoms: _17  and  _20
REMARK    9  A    between atoms: _20  and  _21
REMARK   10  A    between atoms: _24  and  _26
REMARK   11  A    between atoms: _26  and  _27
REMARK   12  A    between atoms: _26  and  _29
REMARK   13  A    between atoms: _29  and  _30
REMARK   14  A    between atoms: _30  and  _31
REMARK   15  A    between atoms: _34  and  _36
REMARK   16  A    between atoms: _36  and  _37
REMARK   17  A    between atoms: _36  and  _39
REMARK   18  A    between atoms: _39  and  _40
REMARK   19  A    between atoms: _45  and  _47
REMARK   20  A    between atoms: _47  and  _48
REMARK   21  A    between atoms: _50  and  _52
REMARK   22  A    between atoms: _52  and  _53
REMARK   23  A    between atoms: _55  and  _57
REMARK   24  A    between atoms: _57  and  _58
REMARK   25  A    between atoms: _57  and  _60
REMARK   26  A    between atoms: _60  and  _61
REMARK   27  A    between atoms: _64  and  _66
REMARK   28  A    between atoms: _66  and  _67
REMARK   29  A    between atoms: _69  and  _71
REMARK   30  A    between atoms: _71  and  _72
REMARK   31  A    between atoms: _71  and  _74
REMARK   32  A    between atoms: _74  and  _75
REMARK   33  A    between atoms: _75  and  _76
REMARK   34  A    between atoms: _76  and  _77
REMARK   35  A    between atoms: _86  and  _88
REMARK   36  A    between atoms: _88  and  _89
REMARK   37  A    between atoms: _88  and  _91
REMARK   38  A    between atoms: _91  and  _92
REMARK   39  A    between atoms: _95  and  _97
REMARK   40  A    between atoms: _97  and  _98
REMARK   41  A    between atoms: _101  and  _103
REMARK   42  A    between atoms: _103  and  _104
REMARK   43  A    between atoms: _103  and  _106
REMARK   44  A    between atoms: _106  and  _107
REMARK   45  A    between atoms: _113  and  _115
REMARK   46  A    between atoms: _115  and  _116
REMARK   47  A    between atoms: _115  and  _118
REMARK   48  A    between atoms: _118  and  _119
REMARK   49  A    between atoms: _124  and  _125
REMARK   50  A    between atoms: _128  and  _129
REMARK   51  A    between atoms: _134  and  _136
REMARK   52  A    between atoms: _136  and  _137
REMARK   53  A    between atoms: _136  and  _139
REMARK   54  A    between atoms: _139  and  _140
REMARK   55  A    between atoms: _145  and  _147
REMARK   56  A    between atoms: _147  and  _148
REMARK   57  A    between atoms: _147  and  _150
REMARK   58  A    between atoms: _150  and  _151
REMARK   59  A    between atoms: _154  and  _156
REMARK   60  A    between atoms: _156  and  _157
REMARK   61  A    between atoms: _156  and  _159
REMARK   62  A    between atoms: _159  and  _160
REMARK   63  A    between atoms: _165  and  _167
REMARK   64  A    between atoms: _167  and  _168
REMARK   65  A    between atoms: _167  and  _170
REMARK   66  A    between atoms: _170  and  _171
REMARK   67  A    between atoms: _177  and  _179
REMARK   68  A    between atoms: _179  and  _180
REMARK   69  A    between atoms: _179  and  _182
REMARK   70  A    between atoms: _182  and  _183
REMARK   71  A    between atoms: _189  and  _191
REMARK   72  A    between atoms: _191  and  _192
REMARK   73  A    between atoms: _191  and  _194
REMARK   74  A    between atoms: _194  and  _195
REMARK   75  A    between atoms: _195  and  _196
REMARK   76  A    between atoms: _199  and  _201
REMARK   77  A    between atoms: _201  and  _202
REMARK   78  A    between atoms: _201  and  _204
REMARK   79  A    between atoms: _204  and  _205
REMARK   80  A    between atoms: _205  and  _206
REMARK   81  A    between atoms: _206  and  _207
REMARK   82  A    between atoms: _216  and  _218
REMARK   83  A    between atoms: _218  and  _219
REMARK   84  A    between atoms: _218  and  _221
REMARK   85  A    between atoms: _221  and  _222
REMARK   86  A    between atoms: _222  and  _223
REMARK   87  A    between atoms: _226  and  _228
REMARK   88  A    between atoms: _228  and  _229
REMARK   89  A    between atoms: _228  and  _231
REMARK   90  A    between atoms: _231  and  _232
REMARK   91  A    between atoms: _237  and  _239
REMARK   92  A    between atoms: _239  and  _240
REMARK   93  A    between atoms: _239  and  _242
REMARK   94  A    between atoms: _242  and  _243
REMARK   95  A    between atoms: _246  and  _248
REMARK   96  A    between atoms: _248  and  _249
REMARK   97  A    between atoms: _248  and  _251
REMARK   98  A    between atoms: _251  and  _252
REMARK   99  A    between atoms: _255  and  _257
REMARK  100  A    between atoms: _257  and  _258
REMARK  101  A    between atoms: _257  and  _260
REMARK  102  A    between atoms: _260  and  _261
REMARK  103  A    between atoms: _266  and  _268
REMARK  104  A    between atoms: _268  and  _269
REMARK  105  A    between atoms: _268  and  _271
REMARK  106  A    between atoms: _271  and  _272
REMARK  107  A    between atoms: _277  and  _278
REMARK  108  A    between atoms: _280  and  _282
REMARK  109  A    between atoms: _282  and  _283
REMARK  110  A    between atoms: _282  and  _285
REMARK  111  A    between atoms: _285  and  _286
REMARK  112  A    between atoms: _289  and  _291
REMARK  113  A    between atoms: _291  and  _292
REMARK  114  A    between atoms: _291  and  _294
REMARK  115  A    between atoms: _294  and  _295
REMARK  116  A    between atoms: _300  and  _302
REMARK  117  A    between atoms: _302  and  _303
REMARK  118  A    between atoms: _302  and  _305
REMARK  119  A    between atoms: _305  and  _306
REMARK  120  A    between atoms: _311  and  _313
REMARK  121  A    between atoms: _313  and  _314
REMARK  122  A    between atoms: _313  and  _316
REMARK  123  A    between atoms: _316  and  _317
REMARK  124  A    between atoms: _320  and  _322
REMARK  125  A    between atoms: _322  and  _323
REMARK  126  A    between atoms: _322  and  _325
REMARK  127  A    between atoms: _328  and  _330
REMARK  128  A    between atoms: _330  and  _331
REMARK  129  A    between atoms: _330  and  _333
REMARK  130  A    between atoms: _333  and  _334
REMARK  131  A    between atoms: _337  and  _339
REMARK  132  A    between atoms: _339  and  _340
REMARK  133  A    between atoms: _339  and  _342
REMARK  134  A    between atoms: _342  and  _343
REMARK  135  A    between atoms: _343  and  _344
REMARK  136  A    between atoms: _347  and  _349
REMARK  137  A    between atoms: _349  and  _350
REMARK  138  A    between atoms: _353  and  _355
REMARK  139  A    between atoms: _355  and  _356
REMARK  140  A    between atoms: _355  and  _358
REMARK  141  A    between atoms: _358  and  _359
REMARK  142  A    between atoms: _362  and  _364
REMARK  143  A    between atoms: _364  and  _365
REMARK  144  A    between atoms: _364  and  _367
REMARK  145  A    between atoms: _367  and  _368
REMARK  146  A    between atoms: _368  and  _369
REMARK  147  A    between atoms: _372  and  _374
REMARK  148  A    between atoms: _374  and  _375
REMARK  149  A    between atoms: _374  and  _377
REMARK  150  A    between atoms: _377  and  _378
REMARK  151  A    between atoms: _378  and  _379
REMARK  152  A    between atoms: _379  and  _380
REMARK  153  A    between atoms: _389  and  _391
REMARK  154  A    between atoms: _391  and  _392
REMARK  155  A    between atoms: _391  and  _394
REMARK  156  A    between atoms: _394  and  _395
REMARK  157  A    between atoms: _405  and  _407
REMARK  158  A    between atoms: _407  and  _408
REMARK  159  A    between atoms: _407  and  _410
REMARK  160  A    between atoms: _410  and  _411
REMARK  161  A    between atoms: _416  and  _418
REMARK  162  A    between atoms: _418  and  _419
REMARK  163  A    between atoms: _421  and  _423
REMARK  164  A    between atoms: _423  and  _424
REMARK  165  A    between atoms: _423  and  _426
REMARK  166  A    between atoms: _429  and  _431
REMARK  167  A    between atoms: _431  and  _432
REMARK  168  A    between atoms: _435  and  _437
REMARK  169  A    between atoms: _437  and  _438
REMARK  170  A    between atoms: _437  and  _440
REMARK  171  A    between atoms: _440  and  _441
REMARK  172  A    between atoms: _446  and  _448
REMARK  173  A    between atoms: _448  and  _449
REMARK  174  A    between atoms: _448  and  _451
REMARK  175  A    between atoms: _451  and  _452
REMARK  176  A    between atoms: _452  and  _453
REMARK  177  A    between atoms: _453  and  _454
REMARK  178  A    between atoms: _454  and  _455
REMARK  179  A    between atoms: _459  and  _461
REMARK  180  A    between atoms: _461  and  _462
REMARK  181  A    between atoms: _461  and  _464
REMARK  182  A    between atoms: _464  and  _465
REMARK  183  A    between atoms: _470  and  _472
REMARK  184  A    between atoms: _472  and  _473
REMARK  185  A    between atoms: _475  and  _477
REMARK  186  A    between atoms: _477  and  _478
REMARK  187  A    between atoms: _477  and  _480
REMARK  188  A    between atoms: _480  and  _481
REMARK  189  A    between atoms: _481  and  _482
REMARK  190  A    between atoms: _482  and  _483
REMARK  191  A    between atoms: _483  and  _484
REMARK  192  A    between atoms: _488  and  _490
REMARK  193  A    between atoms: _490  and  _491
REMARK  194  A    between atoms: _490  and  _493
REMARK  195  A    between atoms: _493  and  _494
REMARK  196  A    between atoms: _494  and  _495
REMARK  197  A    between atoms: _495  and  _496
REMARK  198  A    between atoms: _505  and  _507
REMARK  199  A    between atoms: _507  and  _508
REMARK  200  A    between atoms: _507  and  _510
REMARK  201  A    between atoms: _510  and  _511
REMARK  202  A    between atoms: _516  and  _517
REMARK  203  A    between atoms: _519  and  _521
REMARK  204  A    between atoms: _521  and  _522
REMARK  205  A    between atoms: _521  and  _524
REMARK  206  A    between atoms: _524  and  _525
REMARK  207  A    between atoms: _525  and  _526
REMARK  208  A    between atoms: _526  and  _527
REMARK  209  A    between atoms: _527  and  _528
REMARK  210  A    between atoms: _532  and  _534
REMARK  211  A    between atoms: _534  and  _535
REMARK  212  A    between atoms: _534  and  _537
REMARK  213  A    between atoms: _537  and  _538
REMARK  214  A    between atoms: _540  and  _542
REMARK  215  A    between atoms: _542  and  _543
REMARK  216  A    between atoms: _542  and  _545
REMARK  217  A    between atoms: _545  and  _546
REMARK  218  A    between atoms: _549  and  _551
REMARK  219  A    between atoms: _551  and  _552
REMARK  220  A    between atoms: _551  and  _554
REMARK  221  A    between atoms: _554  and  _555
REMARK  222  A    between atoms: _555  and  _556
REMARK  223  A    between atoms: _559  and  _561
REMARK  224  A    between atoms: _561  and  _562
REMARK  225  A    between atoms: _565  and  _567
REMARK  226  A    between atoms: _567  and  _568
REMARK  227  A    between atoms: _567  and  _570
REMARK  228  A    between atoms: _570  and  _571
REMARK  229  A    between atoms: _573  and  _575
REMARK  230  A    between atoms: _575  and  _576
REMARK  231  A    between atoms: _578  and  _580
REMARK  232  A    between atoms: _580  and  _581
REMARK  233  A    between atoms: _580  and  _583
REMARK  234  A    between atoms: _583  and  _584
REMARK  235  A    between atoms: _587  and  _589
REMARK  236  A    between atoms: _589  and  _590
REMARK  237  A    between atoms: _592  and  _594
REMARK  238  A    between atoms: _594  and  _595
REMARK  239  A    between atoms: _594  and  _597
REMARK  240  A    between atoms: _597  and  _598
REMARK  241  A    between atoms: _603  and  _605
REMARK  242  A    between atoms: _605  and  _606
REMARK  243  A    between atoms: _605  and  _608
REMARK  244  A    between atoms: _608  and  _609
REMARK  245  A    between atoms: _609  and  _610
REMARK  246  A    between atoms: _617  and  _618
REMARK  247  A    between atoms: _618  and  _634
REMARK  248  A    between atoms: _619  and  _621
REMARK  249  A    between atoms: _621  and  _622
REMARK  250  A    between atoms: _622  and  _623
REMARK  251  A    between atoms: _627  and  _629
REMARK  252  A    between atoms: _629  and  _630
REMARK  253  A    between atoms: _629  and  _637
REMARK  254  A    between atoms: _630  and  _631
REMARK  255  A    between atoms: _631  and  _632
REMARK  256  A    between atoms: _632  and  _633
REMARK  257  A    between atoms: _633  and  _634
REMARK  258  A    between atoms: _639  and  _641
REMARK  259  A    between atoms: _641  and  _642
REMARK  260  A    between atoms: _641  and  _644
REMARK  261  A    between atoms: _644  and  _645
REMARK  262  A    between atoms: _648  and  _650
REMARK  263  A    between atoms: _650  and  _651
REMARK  264  A    between atoms: _653  and  _655
REMARK  265  A    between atoms: _655  and  _656
REMARK  266  A    between atoms: _659  and  _661
REMARK  267  A    between atoms: _661  and  _662
REMARK  268  A    between atoms: _661  and  _664
REMARK  269  A    between atoms: _664  and  _665
REMARK  270  A    between atoms: _670  and  _671
REMARK                            x       y       z     vdW  Elec       q    Type
REMARK                         _______ _______ _______ _____ _____    ______ ____
ROOT
ATOM      1  CG  TYR A   1      34.633   7.576  28.997  0.00  0.00    -0.020 A 
ATOM      2  CD2 TYR A   1      35.792   8.190  29.476  0.00  0.00    -0.001 A 
ATOM      3  CE2 TYR A   1      36.037   9.556  29.247  0.00  0.00    +0.036 A 
ATOM      4  CZ  TYR A   1      35.116  10.303  28.542  0.00  0.00    +0.134 A 
ATOM      5  CE1 TYR A   1      33.950   9.714  28.065  0.00  0.00    +0.036 A 
ATOM      6  CD1 TYR A   1      33.713   8.359  28.298  0.00  0.00    -0.001 A 
ENDROOT
BRANCH   4   7
ATOM      7  OH  TYR A   1      35.341  11.646  28.313  0.00  0.00    -0.506 OA
ATOM      8  HH  TYR A   1      35.363  11.814  27.338  0.00  0.00    +0.292 HD
ENDBRANCH   4   7
BRANCH   1   9
ATOM      9  CB  TYR A   1      34.356   6.113  29.270  0.00  0.00    +0.051 C 
BRANCH   9  10
ATOM     10  CA  TYR A   1      34.890   5.111  28.247  0.00  0.00    +0.137 C 
BRANCH  10  11
ATOM     11  N   TYR A   1      33.986   5.004  27.092  0.00  0.00    -0.239 NA
ATOM     12  H   TYR A   1      33.179   5.655  27.017  0.00  0.00    +0.142 HD
ENDBRANCH  10  11
BRANCH  10  13
ATOM     13  C   TYR A   1      35.062   3.772  28.964  0.00  0.00    +0.224 C 
ATOM     14  O   TYR A   1      36.176   3.380  29.305  0.00  0.00    -0.287 OA
ENDBRANCH  10  13
ENDBRANCH   9  10
ENDBRANCH   1   9
TORSDOF 5
REMARK  Name = ../refined-set-2016/3g2k/3g2k_pocket.pdb
REMARK  270 active torsions:
REMARK  status: ('A' for Active; 'I' for Inactive)
REMARK    1  A    between atoms: _1  and  _3
REMARK    2  A    between atoms: _3  and  _4
REMARK    3  A    between atoms: _3  and  _6
REMARK    4  A    between atoms: _6  and  _7
REMARK    5  A    between atoms: _12  and  _13
REMARK    6  A    between atoms: _15  and  _17
REMARK    7  A    between atoms: _17  and  _18
REMARK    8  A    between atoms: _17  and  _20
REMARK    9  A    between atoms: _20  and  _21
REMARK   10  A    between atoms: _24  and  _26
REMARK   11  A    between atoms: _26  and  _27
REMARK   12  A    between atoms: _26  and  _29
REMARK   13  A    between atoms: _29  and  _30
REMARK   14  A    between atoms: _30  and  _31
REMARK   15  A    between atoms: _34  and  _36
REMARK   16  A    between atoms: _36  and  _37
REMARK   17  A    between atoms: _36  and  _39
REMARK   18  A    between atoms: _39  and  _40
REMARK   19  A    between atoms: _45  and  _47
REMARK   20  A    between atoms: _47  and  _48
REMARK   21  A    between atoms: _50  and  _52
REMARK   22  A    between atoms: _52  and  _53
REMARK   23  A    between atoms: _55  and  _57
REMARK   24  A    between atoms: _57  and  _58
REMARK   25  A    between atoms: _57  and  _60
REMARK   26  A    between atoms: _60  and  _61
REMARK   27  A    between atoms: _64  and  _66
REMARK   28  A    between atoms: _66  and  _67
REMARK   29  A    between atoms: _69  and  _71
REMARK   30  A    between atoms: _71  and  _72
REMARK   31  A    between atoms: _71  and  _74
REMARK   32  A    between atoms: _74  and  _75
REMARK   33  A    between atoms: _75  and  _76
REMARK   34  A    between atoms: _76  and  _77
REMARK   35  A    between atoms: _86  and  _88
REMARK   36  A    between atoms: _88  and  _89
REMARK   37  A    between atoms: _88  and  _91
REMARK   38  A    between atoms: _91  and  _92
REMARK   39  A    between atoms: _95  and  _97
REMARK   40  A    between atoms: _97  and  _98
REMARK   41  A    between atoms: _101  and  _103
REMARK   42  A    between atoms: _103  and  _104
REMARK   43  A    between atoms: _103  and  _106
REMARK   44  A    between atoms: _106  and  _107
REMARK   45  A    between atoms: _113  and  _115
REMARK   46  A    between atoms: _115  and  _116
REMARK   47  A    between atoms: _115  and  _118
REMARK   48  A    between atoms: _118  and  _119
REMARK   49  A    between atoms: _124  and  _125
REMARK   50  A    between atoms: _128  and  _129
REMARK   51  A    between atoms: _134  and  _136
REMARK   52  A    between atoms: _136  and  _137
REMARK   53  A    between atoms: _136  and  _139
REMARK   54  A    between atoms: _139  and  _140
REMARK   55  A    between atoms: _145  and  _147
REMARK   56  A    between atoms: _147  and  _148
REMARK   57  A    between atoms: _147  and  _150
REMARK   58  A    between atoms: _150  and  _151
REMARK   59  A    between atoms: _154  and  _156
REMARK   60  A    between atoms: _156  and  _157
REMARK   61  A    between atoms: _156  and  _159
REMARK   62  A    between atoms: _159  and  _160
REMARK   63  A    between atoms: _165  and  _167
REMARK   64  A    between atoms: _167  and  _168
REMARK   65  A    between atoms: _167  and  _170
REMARK   66  A    between atoms: _170  and  _171
REMARK   67  A    between atoms: _177  and  _179
REMARK   68  A    between atoms: _179  and  _180
REMARK   69  A    between atoms: _179  and  _182
REMARK   70  A    between atoms: _182  and  _183
REMARK   71  A    between atoms: _189  and  _191
REMARK   72  A    between atoms: _191  and  _192
REMARK   73  A    between atoms: _191  and  _194
REMARK   74  A    between atoms: _194  and  _195
REMARK   75  A    between atoms: _195  and  _196
REMARK   76  A    between atoms: _199  and  _201
REMARK   77  A    between atoms: _201  and  _202
REMARK   78  A    between atoms: _201  and  _204
REMARK   79  A    between atoms: _204  and  _205
REMARK   80  A    between atoms: _205  and  _206
REMARK   81  A    between atoms: _206  and  _207
REMARK   82  A    between atoms: _216  and  _218
REMARK   83  A    between atoms: _218  and  _219
REMARK   84  A    between atoms: _218  and  _221
REMARK   85  A    between atoms: _221  and  _222
REMARK   86  A    between atoms: _222  and  _223
REMARK   87  A    between atoms: _226  and  _228
REMARK   88  A    between atoms: _228  and  _229
REMARK   89  A    between atoms: _228  and  _231
REMARK   90  A    between atoms: _231  and  _232
REMARK   91  A    between atoms: _237  and  _239
REMARK   92  A    between atoms: _239  and  _240
REMARK   93  A    between atoms: _239  and  _242
REMARK   94  A    between atoms: _242  and  _243
REMARK   95  A    between atoms: _246  and  _248
REMARK   96  A    between atoms: _248  and  _249
REMARK   97  A    between atoms: _248  and  _251
REMARK   98  A    between atoms: _251  and  _252
REMARK   99  A    between atoms: _255  and  _257
REMARK  100  A    between atoms: _257  and  _258
REMARK  101  A    between atoms: _257  and  _260
REMARK  102  A    between atoms: _260  and  _261
REMARK  103  A    between atoms: _266  and  _268
REMARK  104  A    between atoms: _268  and  _269
REMARK  105  A    between atoms: _268  and  _271
REMARK  106  A    between atoms: _271  and  _272
REMARK  107  A    between atoms: _277  and  _278
REMARK  108  A    between atoms: _280  and  _282
REMARK  109  A    between atoms: _282  and  _283
REMARK  110  A    between atoms: _282  and  _285
REMARK  111  A    between atoms: _285  and  _286
REMARK  112  A    between atoms: _289  and  _291
REMARK  113  A    between atoms: _291  and  _292
REMARK  114  A    between atoms: _291  and  _294
REMARK  115  A    between atoms: _294  and  _295
REMARK  116  A    between atoms: _300  and  _302
REMARK  117  A    between atoms: _302  and  _303
REMARK  118  A    between atoms: _302  and  _305
REMARK  119  A    between atoms: _305  and  _306
REMARK  120  A    between atoms: _311  and  _313
REMARK  121  A    between atoms: _313  and  _314
REMARK  122  A    between atoms: _313  and  _316
REMARK  123  A    between atoms: _316  and  _317
REMARK  124  A    between atoms: _320  and  _322
REMARK  125  A    between atoms: _322  and  _323
REMARK  126  A    between atoms: _322  and  _325
REMARK  127  A    between atoms: _328  and  _330
REMARK  128  A    between atoms: _330  and  _331
REMARK  129  A    between atoms: _330  and  _333
REMARK  130  A    between atoms: _333  and  _334
REMARK  131  A    between atoms: _337  and  _339
REMARK  132  A    between atoms: _339  and  _340
REMARK  133  A    between atoms: _339  and  _342
REMARK  134  A    between atoms: _342  and  _343
REMARK  135  A    between atoms: _343  and  _344
REMARK  136  A    between atoms: _347  and  _349
REMARK  137  A    between atoms: _349  and  _350
REMARK  138  A    between atoms: _353  and  _355
REMARK  139  A    between atoms: _355  and  _356
REMARK  140  A    between atoms: _355  and  _358
REMARK  141  A    between atoms: _358  and  _359
REMARK  142  A    between atoms: _362  and  _364
REMARK  143  A    between atoms: _364  and  _365
REMARK  144  A    between atoms: _364  and  _367
REMARK  145  A    between atoms: _367  and  _368
REMARK  146  A    between atoms: _368  and  _369
REMARK  147  A    between atoms: _372  and  _374
REMARK  148  A    between atoms: _374  and  _375
REMARK  149  A    between atoms: _374  and  _377
REMARK  150  A    between atoms: _377  and  _378
REMARK  151  A    between atoms: _378  and  _379
REMARK  152  A    between atoms: _379  and  _380
REMARK  153  A    between atoms: _389  and  _391
REMARK  154  A    between atoms: _391  and  _392
REMARK  155  A    between atoms: _391  and  _394
REMARK  156  A    between atoms: _394  and  _395
REMARK  157  A    between atoms: _405  and  _407
REMARK  158  A    between atoms: _407  and  _408
REMARK  159  A    between atoms: _407  and  _410
REMARK  160  A    between atoms: _410  and  _411
REMARK  161  A    between atoms: _416  and  _418
REMARK  162  A    between atoms: _418  and  _419
REMARK  163  A    between atoms: _421  and  _423
REMARK  164  A    between atoms: _423  and  _424
REMARK  165  A    between atoms: _423  and  _426
REMARK  166  A    between atoms: _429  and  _431
REMARK  167  A    between atoms: _431  and  _432
REMARK  168  A    between atoms: _435  and  _437
REMARK  169  A    between atoms: _437  and  _438
REMARK  170  A    between atoms: _437  and  _440
REMARK  171  A    between atoms: _440  and  _441
REMARK  172  A    between atoms: _446  and  _448
REMARK  173  A    between atoms: _448  and  _449
REMARK  174  A    between atoms: _448  and  _451
REMARK  175  A    between atoms: _451  and  _452
REMARK  176  A    between atoms: _452  and  _453
REMARK  177  A    between atoms: _453  and  _454
REMARK  178  A    between atoms: _454  and  _455
REMARK  179  A    between atoms: _459  and  _461
REMARK  180  A    between atoms: _461  and  _462
REMARK  181  A    between atoms: _461  and  _464
REMARK  182  A    between atoms: _464  and  _465
REMARK  183  A    between atoms: _470  and  _472
REMARK  184  A    between atoms: _472  and  _473
REMARK  185  A    between atoms: _475  and  _477
REMARK  186  A    between atoms: _477  and  _478
REMARK  187  A    between atoms: _477  and  _480
REMARK  188  A    between atoms: _480  and  _481
REMARK  189  A    between atoms: _481  and  _482
REMARK  190  A    between atoms: _482  and  _483
REMARK  191  A    between atoms: _483  and  _484
REMARK  192  A    between atoms: _488  and  _490
REMARK  193  A    between atoms: _490  and  _491
REMARK  194  A    between atoms: _490  and  _493
REMARK  195  A    between atoms: _493  and  _494
REMARK  196  A    between atoms: _494  and  _495
REMARK  197  A    between atoms: _495  and  _496
REMARK  198  A    between atoms: _505  and  _507
REMARK  199  A    between atoms: _507  and  _508
REMARK  200  A    between atoms: _507  and  _510
REMARK  201  A    between atoms: _510  and  _511
REMARK  202  A    between atoms: _516  and  _517
REMARK  203  A    between atoms: _519  and  _521
REMARK  204  A    between atoms: _521  and  _522
REMARK  205  A    between atoms: _521  and  _524
REMARK  206  A    between atoms: _524  and  _525
REMARK  207  A    between atoms: _525  and  _526
REMARK  208  A    between atoms: _526  and  _527
REMARK  209  A    between atoms: _527  and  _528
REMARK  210  A    between atoms: _532  and  _534
REMARK  211  A    between atoms: _534  and  _535
REMARK  212  A    between atoms: _534  and  _537
REMARK  213  A    between atoms: _537  and  _538
REMARK  214  A    between atoms: _540  and  _542
REMARK  215  A    between atoms: _542  and  _543
REMARK  216  A    between atoms: _542  and  _545
REMARK  217  A    between atoms: _545  and  _546
REMARK  218  A    between atoms: _549  and  _551
REMARK  219  A    between atoms: _551  and  _552
REMARK  220  A    between atoms: _551  and  _554
REMARK  221  A    between atoms: _554  and  _555
REMARK  222  A    between atoms: _555  and  _556
REMARK  223  A    between atoms: _559  and  _561
REMARK  224  A    between atoms: _561  and  _562
REMARK  225  A    between atoms: _565  and  _567
REMARK  226  A    between atoms: _567  and  _568
REMARK  227  A    between atoms: _567  and  _570
REMARK  228  A    between atoms: _570  and  _571
REMARK  229  A    between atoms: _573  and  _575
REMARK  230  A    between atoms: _575  and  _576
REMARK  231  A    between atoms: _578  and  _580
REMARK  232  A    between atoms: _580  and  _581
REMARK  233  A    between atoms: _580  and  _583
REMARK  234  A    between atoms: _583  and  _584
REMARK  235  A    between atoms: _587  and  _589
REMARK  236  A    between atoms: _589  and  _590
REMARK  237  A    between atoms: _592  and  _594
REMARK  238  A    between atoms: _594  and  _595
REMARK  239  A    between atoms: _594  and  _597
REMARK  240  A    between atoms: _597  and  _598
REMARK  241  A    between atoms: _603  and  _605
REMARK  242  A    between atoms: _605  and  _606
REMARK  243  A    between atoms: _605  and  _608
REMARK  244  A    between atoms: _608  and  _609
REMARK  245  A    between atoms: _609  and  _610
REMARK  246  A    between atoms: _617  and  _618
REMARK  247  A    between atoms: _618  and  _634
REMARK  248  A    between atoms: _619  and  _621
REMARK  249  A    between atoms: _621  and  _622
REMARK  250  A    between atoms: _622  and  _623
REMARK  251  A    between atoms: _627  and  _629
REMARK  252  A    between atoms: _629  and  _630
REMARK  253  A    between atoms: _629  and  _637
REMARK  254  A    between atoms: _630  and  _631
REMARK  255  A    between atoms: _631  and  _632
REMARK  256  A    between atoms: _632  and  _633
REMARK  257  A    between atoms: _633  and  _634
REMARK  258  A    between atoms: _639  and  _641
REMARK  259  A    between atoms: _641  and  _642
REMARK  260  A    between atoms: _641  and  _644
REMARK  261  A    between atoms: _644  and  _645
REMARK  262  A    between atoms: _648  and  _650
REMARK  263  A    between atoms: _650  and  _651
REMARK  264  A    between atoms: _653  and  _655
REMARK  265  A    between atoms: _655  and  _656
REMARK  266  A    between atoms: _659  and  _661
REMARK  267  A    between atoms: _661  and  _662
REMARK  268  A    between atoms: _661  and  _664
REMARK  269  A    between atoms: _664  and  _665
REMARK  270  A    between atoms: _670  and  _671
REMARK                            x       y       z     vdW  Elec       q    Type
REMARK                         _______ _______ _______ _____ _____    ______ ____
ROOT
ATOM      1  O   HOH     1      35.399  26.330  42.497  0.00  0.00    +0.000 OA
ENDROOT
TORSDOF 0
REMARK  Name = ../refined-set-2016/3g2k/3g2k_pocket.pdb
REMARK  270 active torsions:
REMARK  status: ('A' for Active; 'I' for Inactive)
REMARK    1  A    between atoms: _1  and  _3
REMARK    2  A    between atoms: _3  and  _4
REMARK    3  A    between atoms: _3  and  _6
REMARK    4  A    between atoms: _6  and  _7
REMARK    5  A    between atoms: _12  and  _13
REMARK    6  A    between atoms: _15  and  _17
REMARK    7  A    between atoms: _17  and  _18
REMARK    8  A    between atoms: _17  and  _20
REMARK    9  A    between atoms: _20  and  _21
REMARK   10  A    between atoms: _24  and  _26
REMARK   11  A    between atoms: _26  and  _27
REMARK   12  A    between atoms: _26  and  _29
REMARK   13  A    between atoms: _29  and  _30
REMARK   14  A    between atoms: _30  and  _31
REMARK   15  A    between atoms: _34  and  _36
REMARK   16  A    between atoms: _36  and  _37
REMARK   17  A    between atoms: _36  and  _39
REMARK   18  A    between atoms: _39  and  _40
REMARK   19  A    between atoms: _45  and  _47
REMARK   20  A    between atoms: _47  and  _48
REMARK   21  A    between atoms: _50  and  _52
REMARK   22  A    between atoms: _52  and  _53
REMARK   23  A    between atoms: _55  and  _57
REMARK   24  A    between atoms: _57  and  _58
REMARK   25  A    between atoms: _57  and  _60
REMARK   26  A    between atoms: _60  and  _61
REMARK   27  A    between atoms: _64  and  _66
REMARK   28  A    between atoms: _66  and  _67
REMARK   29  A    between atoms: _69  and  _71
REMARK   30  A    between atoms: _71  and  _72
REMARK   31  A    between atoms: _71  and  _74
REMARK   32  A    between atoms: _74  and  _75
REMARK   33  A    between atoms: _75  and  _76
REMARK   34  A    between atoms: _76  and  _77
REMARK   35  A    between atoms: _86  and  _88
REMARK   36  A    between atoms: _88  and  _89
REMARK   37  A    between atoms: _88  and  _91
REMARK   38  A    between atoms: _91  and  _92
REMARK   39  A    between atoms: _95  and  _97
REMARK   40  A    between atoms: _97  and  _98
REMARK   41  A    between atoms: _101  and  _103
REMARK   42  A    between atoms: _103  and  _104
REMARK   43  A    between atoms: _103  and  _106
REMARK   44  A    between atoms: _106  and  _107
REMARK   45  A    between atoms: _113  and  _115
REMARK   46  A    between atoms: _115  and  _116
REMARK   47  A    between atoms: _115  and  _118
REMARK   48  A    between atoms: _118  and  _119
REMARK   49  A    between atoms: _124  and  _125
REMARK   50  A    between atoms: _128  and  _129
REMARK   51  A    between atoms: _134  and  _136
REMARK   52  A    between atoms: _136  and  _137
REMARK   53  A    between atoms: _136  and  _139
REMARK   54  A    between atoms: _139  and  _140
REMARK   55  A    between atoms: _145  and  _147
REMARK   56  A    between atoms: _147  and  _148
REMARK   57  A    between atoms: _147  and  _150
REMARK   58  A    between atoms: _150  and  _151
REMARK   59  A    between atoms: _154  and  _156
REMARK   60  A    between atoms: _156  and  _157
REMARK   61  A    between atoms: _156  and  _159
REMARK   62  A    between atoms: _159  and  _160
REMARK   63  A    between atoms: _165  and  _167
REMARK   64  A    between atoms: _167  and  _168
REMARK   65  A    between atoms: _167  and  _170
REMARK   66  A    between atoms: _170  and  _171
REMARK   67  A    between atoms: _177  and  _179
REMARK   68  A    between atoms: _179  and  _180
REMARK   69  A    between atoms: _179  and  _182
REMARK   70  A    between atoms: _182  and  _183
REMARK   71  A    between atoms: _189  and  _191
REMARK   72  A    between atoms: _191  and  _192
REMARK   73  A    between atoms: _191  and  _194
REMARK   74  A    between atoms: _194  and  _195
REMARK   75  A    between atoms: _195  and  _196
REMARK   76  A    between atoms: _199  and  _201
REMARK   77  A    between atoms: _201  and  _202
REMARK   78  A    between atoms: _201  and  _204
REMARK   79  A    between atoms: _204  and  _205
REMARK   80  A    between atoms: _205  and  _206
REMARK   81  A    between atoms: _206  and  _207
REMARK   82  A    between atoms: _216  and  _218
REMARK   83  A    between atoms: _218  and  _219
REMARK   84  A    between atoms: _218  and  _221
REMARK   85  A    between atoms: _221  and  _222
REMARK   86  A    between atoms: _222  and  _223
REMARK   87  A    between atoms: _226  and  _228
REMARK   88  A    between atoms: _228  and  _229
REMARK   89  A    between atoms: _228  and  _231
REMARK   90  A    between atoms: _231  and  _232
REMARK   91  A    between atoms: _237  and  _239
REMARK   92  A    between atoms: _239  and  _240
REMARK   93  A    between atoms: _239  and  _242
REMARK   94  A    between atoms: _242  and  _243
REMARK   95  A    between atoms: _246  and  _248
REMARK   96  A    between atoms: _248  and  _249
REMARK   97  A    between atoms: _248  and  _251
REMARK   98  A    between atoms: _251  and  _252
REMARK   99  A    between atoms: _255  and  _257
REMARK  100  A    between atoms: _257  and  _258
REMARK  101  A    between atoms: _257  and  _260
REMARK  102  A    between atoms: _260  and  _261
REMARK  103  A    between atoms: _266  and  _268
REMARK  104  A    between atoms: _268  and  _269
REMARK  105  A    between atoms: _268  and  _271
REMARK  106  A    between atoms: _271  and  _272
REMARK  107  A    between atoms: _277  and  _278
REMARK  108  A    between atoms: _280  and  _282
REMARK  109  A    between atoms: _282  and  _283
REMARK  110  A    between atoms: _282  and  _285
REMARK  111  A    between atoms: _285  and  _286
REMARK  112  A    between atoms: _289  and  _291
REMARK  113  A    between atoms: _291  and  _292
REMARK  114  A    between atoms: _291  and  _294
REMARK  115  A    between atoms: _294  and  _295
REMARK  116  A    between atoms: _300  and  _302
REMARK  117  A    between atoms: _302  and  _303
REMARK  118  A    between atoms: _302  and  _305
REMARK  119  A    between atoms: _305  and  _306
REMARK  120  A    between atoms: _311  and  _313
REMARK  121  A    between atoms: _313  and  _314
REMARK  122  A    between atoms: _313  and  _316
REMARK  123  A    between atoms: _316  and  _317
REMARK  124  A    between atoms: _320  and  _322
REMARK  125  A    between atoms: _322  and  _323
REMARK  126  A    between atoms: _322  and  _325
REMARK  127  A    between atoms: _328  and  _330
REMARK  128  A    between atoms: _330  and  _331
REMARK  129  A    between atoms: _330  and  _333
REMARK  130  A    between atoms: _333  and  _334
REMARK  131  A    between atoms: _337  and  _339
REMARK  132  A    between atoms: _339  and  _340
REMARK  133  A    between atoms: _339  and  _342
REMARK  134  A    between atoms: _342  and  _343
REMARK  135  A    between atoms: _343  and  _344
REMARK  136  A    between atoms: _347  and  _349
REMARK  137  A    between atoms: _349  and  _350
REMARK  138  A    between atoms: _353  and  _355
REMARK  139  A    between atoms: _355  and  _356
REMARK  140  A    between atoms: _355  and  _358
REMARK  141  A    between atoms: _358  and  _359
REMARK  142  A    between atoms: _362  and  _364
REMARK  143  A    between atoms: _364  and  _365
REMARK  144  A    between atoms: _364  and  _367
REMARK  145  A    between atoms: _367  and  _368
REMARK  146  A    between atoms: _368  and  _369
REMARK  147  A    between atoms: _372  and  _374
REMARK  148  A    between atoms: _374  and  _375
REMARK  149  A    between atoms: _374  and  _377
REMARK  150  A    between atoms: _377  and  _378
REMARK  151  A    between atoms: _378  and  _379
REMARK  152  A    between atoms: _379  and  _380
REMARK  153  A    between atoms: _389  and  _391
REMARK  154  A    between atoms: _391  and  _392
REMARK  155  A    between atoms: _391  and  _394
REMARK  156  A    between atoms: _394  and  _395
REMARK  157  A    between atoms: _405  and  _407
REMARK  158  A    between atoms: _407  and  _408
REMARK  159  A    between atoms: _407  and  _410
REMARK  160  A    between atoms: _410  and  _411
REMARK  161  A    between atoms: _416  and  _418
REMARK  162  A    between atoms: _418  and  _419
REMARK  163  A    between atoms: _421  and  _423
REMARK  164  A    between atoms: _423  and  _424
REMARK  165  A    between atoms: _423  and  _426
REMARK  166  A    between atoms: _429  and  _431
REMARK  167  A    between atoms: _431  and  _432
REMARK  168  A    between atoms: _435  and  _437
REMARK  169  A    between atoms: _437  and  _438
REMARK  170  A    between atoms: _437  and  _440
REMARK  171  A    between atoms: _440  and  _441
REMARK  172  A    between atoms: _446  and  _448
REMARK  173  A    between atoms: _448  and  _449
REMARK  174  A    between atoms: _448  and  _451
REMARK  175  A    between atoms: _451  and  _452
REMARK  176  A    between atoms: _452  and  _453
REMARK  177  A    between atoms: _453  and  _454
REMARK  178  A    between atoms: _454  and  _455
REMARK  179  A    between atoms: _459  and  _461
REMARK  180  A    between atoms: _461  and  _462
REMARK  181  A    between atoms: _461  and  _464
REMARK  182  A    between atoms: _464  and  _465
REMARK  183  A    between atoms: _470  and  _472
REMARK  184  A    between atoms: _472  and  _473
REMARK  185  A    between atoms: _475  and  _477
REMARK  186  A    between atoms: _477  and  _478
REMARK  187  A    between atoms: _477  and  _480
REMARK  188  A    between atoms: _480  and  _481
REMARK  189  A    between atoms: _481  and  _482
REMARK  190  A    between atoms: _482  and  _483
REMARK  191  A    between atoms: _483  and  _484
REMARK  192  A    between atoms: _488  and  _490
REMARK  193  A    between atoms: _490  and  _491
REMARK  194  A    between atoms: _490  and  _493
REMARK  195  A    between atoms: _493  and  _494
REMARK  196  A    between atoms: _494  and  _495
REMARK  197  A    between atoms: _495  and  _496
REMARK  198  A    between atoms: _505  and  _507
REMARK  199  A    between atoms: _507  and  _508
REMARK  200  A    between atoms: _507  and  _510
REMARK  201  A    between atoms: _510  and  _511
REMARK  202  A    between atoms: _516  and  _517
REMARK  203  A    between atoms: _519  and  _521
REMARK  204  A    between atoms: _521  and  _522
REMARK  205  A    between atoms: _521  and  _524
REMARK  206  A    between atoms: _524  and  _525
REMARK  207  A    between atoms: _525  and  _526
REMARK  208  A    between atoms: _526  and  _527
REMARK  209  A    between atoms: _527  and  _528
REMARK  210  A    between atoms: _532  and  _534
REMARK  211  A    between atoms: _534  and  _535
REMARK  212  A    between atoms: _534  and  _537
REMARK  213  A    between atoms: _537  and  _538
REMARK  214  A    between atoms: _540  and  _542
REMARK  215  A    between atoms: _542  and  _543
REMARK  216  A    between atoms: _542  and  _545
REMARK  217  A    between atoms: _545  and  _546
REMARK  218  A    between atoms: _549  and  _551
REMARK  219  A    between atoms: _551  and  _552
REMARK  220  A    between atoms: _551  and  _554
REMARK  221  A    between atoms: _554  and  _555
REMARK  222  A    between atoms: _555  and  _556
REMARK  223  A    between atoms: _559  and  _561
REMARK  224  A    between atoms: _561  and  _562
REMARK  225  A    between atoms: _565  and  _567
REMARK  226  A    between atoms: _567  and  _568
REMARK  227  A    between atoms: _567  and  _570
REMARK  228  A    between atoms: _570  and  _571
REMARK  229  A    between atoms: _573  and  _575
REMARK  230  A    between atoms: _575  and  _576
REMARK  231  A    between atoms: _578  and  _580
REMARK  232  A    between atoms: _580  and  _581
REMARK  233  A    between atoms: _580  and  _583
REMARK  234  A    between atoms: _583  and  _584
REMARK  235  A    between atoms: _587  and  _589
REMARK  236  A    between atoms: _589  and  _590
REMARK  237  A    between atoms: _592  and  _594
REMARK  238  A    between atoms: _594  and  _595
REMARK  239  A    between atoms: _594  and  _597
REMARK  240  A    between atoms: _597  and  _598
REMARK  241  A    between atoms: _603  and  _605
REMARK  242  A    between atoms: _605  and  _606
REMARK  243  A    between atoms: _605  and  _608
REMARK  244  A    between atoms: _608  and  _609
REMARK  245  A    between atoms: _609  and  _610
REMARK  246  A    between atoms: _617  and  _618
REMARK  247  A    between atoms: _618  and  _634
REMARK  248  A    between atoms: _619  and  _621
REMARK  249  A    between atoms: _621  and  _622
REMARK  250  A    between atoms: _622  and  _623
REMARK  251  A    between atoms: _627  and  _629
REMARK  252  A    between atoms: _629  and  _630
REMARK  253  A    between atoms: _629  and  _637
REMARK  254  A    between atoms: _630  and  _631
REMARK  255  A    between atoms: _631  and  _632
REMARK  256  A    between atoms: _632  and  _633
REMARK  257  A    between atoms: _633  and  _634
REMARK  258  A    between atoms: _639  and  _641
REMARK  259  A    between atoms: _641  and  _642
REMARK  260  A    between atoms: _641  and  _644
REMARK  261  A    between atoms: _644  and  _645
REMARK  262  A    between atoms: _648  and  _650
REMARK  263  A    between atoms: _650  and  _651
REMARK  264  A    between atoms: _653  and  _655
REMARK  265  A    between atoms: _655  and  _656
REMARK  266  A    between atoms: _659  and  _661
REMARK  267  A    between atoms: _661  and  _662
REMARK  268  A    between atoms: _661  and  _664
REMARK  269  A    between atoms: _664  and  _665
REMARK  270  A    between atoms: _670  and  _671
REMARK                            x       y       z     vdW  Elec       q    Type
REMARK                         _______ _______ _______ _____ _____    ______ ____
ROOT
ATOM      1  O   HOH     1      34.854  26.548  38.873  0.00  0.00    +0.000 OA
ENDROOT
TORSDOF 0
REMARK  Name = ../refined-set-2016/3g2k/3g2k_pocket.pdb
REMARK  270 active torsions:
REMARK  status: ('A' for Active; 'I' for Inactive)
REMARK    1  A    between atoms: _1  and  _3
REMARK    2  A    between atoms: _3  and  _4
REMARK    3  A    between atoms: _3  and  _6
REMARK    4  A    between atoms: _6  and  _7
REMARK    5  A    between atoms: _12  and  _13
REMARK    6  A    between atoms: _15  and  _17
REMARK    7  A    between atoms: _17  and  _18
REMARK    8  A    between atoms: _17  and  _20
REMARK    9  A    between atoms: _20  and  _21
REMARK   10  A    between atoms: _24  and  _26
REMARK   11  A    between atoms: _26  and  _27
REMARK   12  A    between atoms: _26  and  _29
REMARK   13  A    between atoms: _29  and  _30
REMARK   14  A    between atoms: _30  and  _31
REMARK   15  A    between atoms: _34  and  _36
REMARK   16  A    between atoms: _36  and  _37
REMARK   17  A    between atoms: _36  and  _39
REMARK   18  A    between atoms: _39  and  _40
REMARK   19  A    between atoms: _45  and  _47
REMARK   20  A    between atoms: _47  and  _48
REMARK   21  A    between atoms: _50  and  _52
REMARK   22  A    between atoms: _52  and  _53
REMARK   23  A    between atoms: _55  and  _57
REMARK   24  A    between atoms: _57  and  _58
REMARK   25  A    between atoms: _57  and  _60
REMARK   26  A    between atoms: _60  and  _61
REMARK   27  A    between atoms: _64  and  _66
REMARK   28  A    between atoms: _66  and  _67
REMARK   29  A    between atoms: _69  and  _71
REMARK   30  A    between atoms: _71  and  _72
REMARK   31  A    between atoms: _71  and  _74
REMARK   32  A    between atoms: _74  and  _75
REMARK   33  A    between atoms: _75  and  _76
REMARK   34  A    between atoms: _76  and  _77
REMARK   35  A    between atoms: _86  and  _88
REMARK   36  A    between atoms: _88  and  _89
REMARK   37  A    between atoms: _88  and  _91
REMARK   38  A    between atoms: _91  and  _92
REMARK   39  A    between atoms: _95  and  _97
REMARK   40  A    between atoms: _97  and  _98
REMARK   41  A    between atoms: _101  and  _103
REMARK   42  A    between atoms: _103  and  _104
REMARK   43  A    between atoms: _103  and  _106
REMARK   44  A    between atoms: _106  and  _107
REMARK   45  A    between atoms: _113  and  _115
REMARK   46  A    between atoms: _115  and  _116
REMARK   47  A    between atoms: _115  and  _118
REMARK   48  A    between atoms: _118  and  _119
REMARK   49  A    between atoms: _124  and  _125
REMARK   50  A    between atoms: _128  and  _129
REMARK   51  A    between atoms: _134  and  _136
REMARK   52  A    between atoms: _136  and  _137
REMARK   53  A    between atoms: _136  and  _139
REMARK   54  A    between atoms: _139  and  _140
REMARK   55  A    between atoms: _145  and  _147
REMARK   56  A    between atoms: _147  and  _148
REMARK   57  A    between atoms: _147  and  _150
REMARK   58  A    between atoms: _150  and  _151
REMARK   59  A    between atoms: _154  and  _156
REMARK   60  A    between atoms: _156  and  _157
REMARK   61  A    between atoms: _156  and  _159
REMARK   62  A    between atoms: _159  and  _160
REMARK   63  A    between atoms: _165  and  _167
REMARK   64  A    between atoms: _167  and  _168
REMARK   65  A    between atoms: _167  and  _170
REMARK   66  A    between atoms: _170  and  _171
REMARK   67  A    between atoms: _177  and  _179
REMARK   68  A    between atoms: _179  and  _180
REMARK   69  A    between atoms: _179  and  _182
REMARK   70  A    between atoms: _182  and  _183
REMARK   71  A    between atoms: _189  and  _191
REMARK   72  A    between atoms: _191  and  _192
REMARK   73  A    between atoms: _191  and  _194
REMARK   74  A    between atoms: _194  and  _195
REMARK   75  A    between atoms: _195  and  _196
REMARK   76  A    between atoms: _199  and  _201
REMARK   77  A    between atoms: _201  and  _202
REMARK   78  A    between atoms: _201  and  _204
REMARK   79  A    between atoms: _204  and  _205
REMARK   80  A    between atoms: _205  and  _206
REMARK   81  A    between atoms: _206  and  _207
REMARK   82  A    between atoms: _216  and  _218
REMARK   83  A    between atoms: _218  and  _219
REMARK   84  A    between atoms: _218  and  _221
REMARK   85  A    between atoms: _221  and  _222
REMARK   86  A    between atoms: _222  and  _223
REMARK   87  A    between atoms: _226  and  _228
REMARK   88  A    between atoms: _228  and  _229
REMARK   89  A    between atoms: _228  and  _231
REMARK   90  A    between atoms: _231  and  _232
REMARK   91  A    between atoms: _237  and  _239
REMARK   92  A    between atoms: _239  and  _240
REMARK   93  A    between atoms: _239  and  _242
REMARK   94  A    between atoms: _242  and  _243
REMARK   95  A    between atoms: _246  and  _248
REMARK   96  A    between atoms: _248  and  _249
REMARK   97  A    between atoms: _248  and  _251
REMARK   98  A    between atoms: _251  and  _252
REMARK   99  A    between atoms: _255  and  _257
REMARK  100  A    between atoms: _257  and  _258
REMARK  101  A    between atoms: _257  and  _260
REMARK  102  A    between atoms: _260  and  _261
REMARK  103  A    between atoms: _266  and  _268
REMARK  104  A    between atoms: _268  and  _269
REMARK  105  A    between atoms: _268  and  _271
REMARK  106  A    between atoms: _271  and  _272
REMARK  107  A    between atoms: _277  and  _278
REMARK  108  A    between atoms: _280  and  _282
REMARK  109  A    between atoms: _282  and  _283
REMARK  110  A    between atoms: _282  and  _285
REMARK  111  A    between atoms: _285  and  _286
REMARK  112  A    between atoms: _289  and  _291
REMARK  113  A    between atoms: _291  and  _292
REMARK  114  A    between atoms: _291  and  _294
REMARK  115  A    between atoms: _294  and  _295
REMARK  116  A    between atoms: _300  and  _302
REMARK  117  A    between atoms: _302  and  _303
REMARK  118  A    between atoms: _302  and  _305
REMARK  119  A    between atoms: _305  and  _306
REMARK  120  A    between atoms: _311  and  _313
REMARK  121  A    between atoms: _313  and  _314
REMARK  122  A    between atoms: _313  and  _316
REMARK  123  A    between atoms: _316  and  _317
REMARK  124  A    between atoms: _320  and  _322
REMARK  125  A    between atoms: _322  and  _323
REMARK  126  A    between atoms: _322  and  _325
REMARK  127  A    between atoms: _328  and  _330
REMARK  128  A    between atoms: _330  and  _331
REMARK  129  A    between atoms: _330  and  _333
REMARK  130  A    between atoms: _333  and  _334
REMARK  131  A    between atoms: _337  and  _339
REMARK  132  A    between atoms: _339  and  _340
REMARK  133  A    between atoms: _339  and  _342
REMARK  134  A    between atoms: _342  and  _343
REMARK  135  A    between atoms: _343  and  _344
REMARK  136  A    between atoms: _347  and  _349
REMARK  137  A    between atoms: _349  and  _350
REMARK  138  A    between atoms: _353  and  _355
REMARK  139  A    between atoms: _355  and  _356
REMARK  140  A    between atoms: _355  and  _358
REMARK  141  A    between atoms: _358  and  _359
REMARK  142  A    between atoms: _362  and  _364
REMARK  143  A    between atoms: _364  and  _365
REMARK  144  A    between atoms: _364  and  _367
REMARK  145  A    between atoms: _367  and  _368
REMARK  146  A    between atoms: _368  and  _369
REMARK  147  A    between atoms: _372  and  _374
REMARK  148  A    between atoms: _374  and  _375
REMARK  149  A    between atoms: _374  and  _377
REMARK  150  A    between atoms: _377  and  _378
REMARK  151  A    between atoms: _378  and  _379
REMARK  152  A    between atoms: _379  and  _380
REMARK  153  A    between atoms: _389  and  _391
REMARK  154  A    between atoms: _391  and  _392
REMARK  155  A    between atoms: _391  and  _394
REMARK  156  A    between atoms: _394  and  _395
REMARK  157  A    between atoms: _405  and  _407
REMARK  158  A    between atoms: _407  and  _408
REMARK  159  A    between atoms: _407  and  _410
REMARK  160  A    between atoms: _410  and  _411
REMARK  161  A    between atoms: _416  and  _418
REMARK  162  A    between atoms: _418  and  _419
REMARK  163  A    between atoms: _421  and  _423
REMARK  164  A    between atoms: _423  and  _424
REMARK  165  A    between atoms: _423  and  _426
REMARK  166  A    between atoms: _429  and  _431
REMARK  167  A    between atoms: _431  and  _432
REMARK  168  A    between atoms: _435  and  _437
REMARK  169  A    between atoms: _437  and  _438
REMARK  170  A    between atoms: _437  and  _440
REMARK  171  A    between atoms: _440  and  _441
REMARK  172  A    between atoms: _446  and  _448
REMARK  173  A    between atoms: _448  and  _449
REMARK  174  A    between atoms: _448  and  _451
REMARK  175  A    between atoms: _451  and  _452
REMARK  176  A    between atoms: _452  and  _453
REMARK  177  A    between atoms: _453  and  _454
REMARK  178  A    between atoms: _454  and  _455
REMARK  179  A    between atoms: _459  and  _461
REMARK  180  A    between atoms: _461  and  _462
REMARK  181  A    between atoms: _461  and  _464
REMARK  182  A    between atoms: _464  and  _465
REMARK  183  A    between atoms: _470  and  _472
REMARK  184  A    between atoms: _472  and  _473
REMARK  185  A    between atoms: _475  and  _477
REMARK  186  A    between atoms: _477  and  _478
REMARK  187  A    between atoms: _477  and  _480
REMARK  188  A    between atoms: _480  and  _481
REMARK  189  A    between atoms: _481  and  _482
REMARK  190  A    between atoms: _482  and  _483
REMARK  191  A    between atoms: _483  and  _484
REMARK  192  A    between atoms: _488  and  _490
REMARK  193  A    between atoms: _490  and  _491
REMARK  194  A    between atoms: _490  and  _493
REMARK  195  A    between atoms: _493  and  _494
REMARK  196  A    between atoms: _494  and  _495
REMARK  197  A    between atoms: _495  and  _496
REMARK  198  A    between atoms: _505  and  _507
REMARK  199  A    between atoms: _507  and  _508
REMARK  200  A    between atoms: _507  and  _510
REMARK  201  A    between atoms: _510  and  _511
REMARK  202  A    between atoms: _516  and  _517
REMARK  203  A    between atoms: _519  and  _521
REMARK  204  A    between atoms: _521  and  _522
REMARK  205  A    between atoms: _521  and  _524
REMARK  206  A    between atoms: _524  and  _525
REMARK  207  A    between atoms: _525  and  _526
REMARK  208  A    between atoms: _526  and  _527
REMARK  209  A    between atoms: _527  and  _528
REMARK  210  A    between atoms: _532  and  _534
REMARK  211  A    between atoms: _534  and  _535
REMARK  212  A    between atoms: _534  and  _537
REMARK  213  A    between atoms: _537  and  _538
REMARK  214  A    between atoms: _540  and  _542
REMARK  215  A    between atoms: _542  and  _543
REMARK  216  A    between atoms: _542  and  _545
REMARK  217  A    between atoms: _545  and  _546
REMARK  218  A    between atoms: _549  and  _551
REMARK  219  A    between atoms: _551  and  _552
REMARK  220  A    between atoms: _551  and  _554
REMARK  221  A    between atoms: _554  and  _555
REMARK  222  A    between atoms: _555  and  _556
REMARK  223  A    between atoms: _559  and  _561
REMARK  224  A    between atoms: _561  and  _562
REMARK  225  A    between atoms: _565  and  _567
REMARK  226  A    between atoms: _567  and  _568
REMARK  227  A    between atoms: _567  and  _570
REMARK  228  A    between atoms: _570  and  _571
REMARK  229  A    between atoms: _573  and  _575
REMARK  230  A    between atoms: _575  and  _576
REMARK  231  A    between atoms: _578  and  _580
REMARK  232  A    between atoms: _580  and  _581
REMARK  233  A    between atoms: _580  and  _583
REMARK  234  A    between atoms: _583  and  _584
REMARK  235  A    between atoms: _587  and  _589
REMARK  236  A    between atoms: _589  and  _590
REMARK  237  A    between atoms: _592  and  _594
REMARK  238  A    between atoms: _594  and  _595
REMARK  239  A    between atoms: _594  and  _597
REMARK  240  A    between atoms: _597  and  _598
REMARK  241  A    between atoms: _603  and  _605
REMARK  242  A    between atoms: _605  and  _606
REMARK  243  A    between atoms: _605  and  _608
REMARK  244  A    between atoms: _608  and  _609
REMARK  245  A    between atoms: _609  and  _610
REMARK  246  A    between atoms: _617  and  _618
REMARK  247  A    between atoms: _618  and  _634
REMARK  248  A    between atoms: _619  and  _621
REMARK  249  A    between atoms: _621  and  _622
REMARK  250  A    between atoms: _622  and  _623
REMARK  251  A    between atoms: _627  and  _629
REMARK  252  A    between atoms: _629  and  _630
REMARK  253  A    between atoms: _629  and  _637
REMARK  254  A    between atoms: _630  and  _631
REMARK  255  A    between atoms: _631  and  _632
REMARK  256  A    between atoms: _632  and  _633
REMARK  257  A    between atoms: _633  and  _634
REMARK  258  A    between atoms: _639  and  _641
REMARK  259  A    between atoms: _641  and  _642
REMARK  260  A    between atoms: _641  and  _644
REMARK  261  A    between atoms: _644  and  _645
REMARK  262  A    between atoms: _648  and  _650
REMARK  263  A    between atoms: _650  and  _651
REMARK  264  A    between atoms: _653  and  _655
REMARK  265  A    between atoms: _655  and  _656
REMARK  266  A    between atoms: _659  and  _661
REMARK  267  A    between atoms: _661  and  _662
REMARK  268  A    between atoms: _661  and  _664
REMARK  269  A    between atoms: _664  and  _665
REMARK  270  A    between atoms: _670  and  _671
REMARK                            x       y       z     vdW  Elec       q    Type
REMARK                         _______ _______ _______ _____ _____    ______ ____
ROOT
ATOM      1  O   HOH     1      32.465  25.825  32.532  0.00  0.00    +0.000 OA
ENDROOT
TORSDOF 0
REMARK  Name = ../refined-set-2016/3g2k/3g2k_pocket.pdb
REMARK  270 active torsions:
REMARK  status: ('A' for Active; 'I' for Inactive)
REMARK    1  A    between atoms: _1  and  _3
REMARK    2  A    between atoms: _3  and  _4
REMARK    3  A    between atoms: _3  and  _6
REMARK    4  A    between atoms: _6  and  _7
REMARK    5  A    between atoms: _12  and  _13
REMARK    6  A    between atoms: _15  and  _17
REMARK    7  A    between atoms: _17  and  _18
REMARK    8  A    between atoms: _17  and  _20
REMARK    9  A    between atoms: _20  and  _21
REMARK   10  A    between atoms: _24  and  _26
REMARK   11  A    between atoms: _26  and  _27
REMARK   12  A    between atoms: _26  and  _29
REMARK   13  A    between atoms: _29  and  _30
REMARK   14  A    between atoms: _30  and  _31
REMARK   15  A    between atoms: _34  and  _36
REMARK   16  A    between atoms: _36  and  _37
REMARK   17  A    between atoms: _36  and  _39
REMARK   18  A    between atoms: _39  and  _40
REMARK   19  A    between atoms: _45  and  _47
REMARK   20  A    between atoms: _47  and  _48
REMARK   21  A    between atoms: _50  and  _52
REMARK   22  A    between atoms: _52  and  _53
REMARK   23  A    between atoms: _55  and  _57
REMARK   24  A    between atoms: _57  and  _58
REMARK   25  A    between atoms: _57  and  _60
REMARK   26  A    between atoms: _60  and  _61
REMARK   27  A    between atoms: _64  and  _66
REMARK   28  A    between atoms: _66  and  _67
REMARK   29  A    between atoms: _69  and  _71
REMARK   30  A    between atoms: _71  and  _72
REMARK   31  A    between atoms: _71  and  _74
REMARK   32  A    between atoms: _74  and  _75
REMARK   33  A    between atoms: _75  and  _76
REMARK   34  A    between atoms: _76  and  _77
REMARK   35  A    between atoms: _86  and  _88
REMARK   36  A    between atoms: _88  and  _89
REMARK   37  A    between atoms: _88  and  _91
REMARK   38  A    between atoms: _91  and  _92
REMARK   39  A    between atoms: _95  and  _97
REMARK   40  A    between atoms: _97  and  _98
REMARK   41  A    between atoms: _101  and  _103
REMARK   42  A    between atoms: _103  and  _104
REMARK   43  A    between atoms: _103  and  _106
REMARK   44  A    between atoms: _106  and  _107
REMARK   45  A    between atoms: _113  and  _115
REMARK   46  A    between atoms: _115  and  _116
REMARK   47  A    between atoms: _115  and  _118
REMARK   48  A    between atoms: _118  and  _119
REMARK   49  A    between atoms: _124  and  _125
REMARK   50  A    between atoms: _128  and  _129
REMARK   51  A    between atoms: _134  and  _136
REMARK   52  A    between atoms: _136  and  _137
REMARK   53  A    between atoms: _136  and  _139
REMARK   54  A    between atoms: _139  and  _140
REMARK   55  A    between atoms: _145  and  _147
REMARK   56  A    between atoms: _147  and  _148
REMARK   57  A    between atoms: _147  and  _150
REMARK   58  A    between atoms: _150  and  _151
REMARK   59  A    between atoms: _154  and  _156
REMARK   60  A    between atoms: _156  and  _157
REMARK   61  A    between atoms: _156  and  _159
REMARK   62  A    between atoms: _159  and  _160
REMARK   63  A    between atoms: _165  and  _167
REMARK   64  A    between atoms: _167  and  _168
REMARK   65  A    between atoms: _167  and  _170
REMARK   66  A    between atoms: _170  and  _171
REMARK   67  A    between atoms: _177  and  _179
REMARK   68  A    between atoms: _179  and  _180
REMARK   69  A    between atoms: _179  and  _182
REMARK   70  A    between atoms: _182  and  _183
REMARK   71  A    between atoms: _189  and  _191
REMARK   72  A    between atoms: _191  and  _192
REMARK   73  A    between atoms: _191  and  _194
REMARK   74  A    between atoms: _194  and  _195
REMARK   75  A    between atoms: _195  and  _196
REMARK   76  A    between atoms: _199  and  _201
REMARK   77  A    between atoms: _201  and  _202
REMARK   78  A    between atoms: _201  and  _204
REMARK   79  A    between atoms: _204  and  _205
REMARK   80  A    between atoms: _205  and  _206
REMARK   81  A    between atoms: _206  and  _207
REMARK   82  A    between atoms: _216  and  _218
REMARK   83  A    between atoms: _218  and  _219
REMARK   84  A    between atoms: _218  and  _221
REMARK   85  A    between atoms: _221  and  _222
REMARK   86  A    between atoms: _222  and  _223
REMARK   87  A    between atoms: _226  and  _228
REMARK   88  A    between atoms: _228  and  _229
REMARK   89  A    between atoms: _228  and  _231
REMARK   90  A    between atoms: _231  and  _232
REMARK   91  A    between atoms: _237  and  _239
REMARK   92  A    between atoms: _239  and  _240
REMARK   93  A    between atoms: _239  and  _242
REMARK   94  A    between atoms: _242  and  _243
REMARK   95  A    between atoms: _246  and  _248
REMARK   96  A    between atoms: _248  and  _249
REMARK   97  A    between atoms: _248  and  _251
REMARK   98  A    between atoms: _251  and  _252
REMARK   99  A    between atoms: _255  and  _257
REMARK  100  A    between atoms: _257  and  _258
REMARK  101  A    between atoms: _257  and  _260
REMARK  102  A    between atoms: _260  and  _261
REMARK  103  A    between atoms: _266  and  _268
REMARK  104  A    between atoms: _268  and  _269
REMARK  105  A    between atoms: _268  and  _271
REMARK  106  A    between atoms: _271  and  _272
REMARK  107  A    between atoms: _277  and  _278
REMARK  108  A    between atoms: _280  and  _282
REMARK  109  A    between atoms: _282  and  _283
REMARK  110  A    between atoms: _282  and  _285
REMARK  111  A    between atoms: _285  and  _286
REMARK  112  A    between atoms: _289  and  _291
REMARK  113  A    between atoms: _291  and  _292
REMARK  114  A    between atoms: _291  and  _294
REMARK  115  A    between atoms: _294  and  _295
REMARK  116  A    between atoms: _300  and  _302
REMARK  117  A    between atoms: _302  and  _303
REMARK  118  A    between atoms: _302  and  _305
REMARK  119  A    between atoms: _305  and  _306
REMARK  120  A    between atoms: _311  and  _313
REMARK  121  A    between atoms: _313  and  _314
REMARK  122  A    between atoms: _313  and  _316
REMARK  123  A    between atoms: _316  and  _317
REMARK  124  A    between atoms: _320  and  _322
REMARK  125  A    between atoms: _322  and  _323
REMARK  126  A    between atoms: _322  and  _325
REMARK  127  A    between atoms: _328  and  _330
REMARK  128  A    between atoms: _330  and  _331
REMARK  129  A    between atoms: _330  and  _333
REMARK  130  A    between atoms: _333  and  _334
REMARK  131  A    between atoms: _337  and  _339
REMARK  132  A    between atoms: _339  and  _340
REMARK  133  A    between atoms: _339  and  _342
REMARK  134  A    between atoms: _342  and  _343
REMARK  135  A    between atoms: _343  and  _344
REMARK  136  A    between atoms: _347  and  _349
REMARK  137  A    between atoms: _349  and  _350
REMARK  138  A    between atoms: _353  and  _355
REMARK  139  A    between atoms: _355  and  _356
REMARK  140  A    between atoms: _355  and  _358
REMARK  141  A    between atoms: _358  and  _359
REMARK  142  A    between atoms: _362  and  _364
REMARK  143  A    between atoms: _364  and  _365
REMARK  144  A    between atoms: _364  and  _367
REMARK  145  A    between atoms: _367  and  _368
REMARK  146  A    between atoms: _368  and  _369
REMARK  147  A    between atoms: _372  and  _374
REMARK  148  A    between atoms: _374  and  _375
REMARK  149  A    between atoms: _374  and  _377
REMARK  150  A    between atoms: _377  and  _378
REMARK  151  A    between atoms: _378  and  _379
REMARK  152  A    between atoms: _379  and  _380
REMARK  153  A    between atoms: _389  and  _391
REMARK  154  A    between atoms: _391  and  _392
REMARK  155  A    between atoms: _391  and  _394
REMARK  156  A    between atoms: _394  and  _395
REMARK  157  A    between atoms: _405  and  _407
REMARK  158  A    between atoms: _407  and  _408
REMARK  159  A    between atoms: _407  and  _410
REMARK  160  A    between atoms: _410  and  _411
REMARK  161  A    between atoms: _416  and  _418
REMARK  162  A    between atoms: _418  and  _419
REMARK  163  A    between atoms: _421  and  _423
REMARK  164  A    between atoms: _423  and  _424
REMARK  165  A    between atoms: _423  and  _426
REMARK  166  A    between atoms: _429  and  _431
REMARK  167  A    between atoms: _431  and  _432
REMARK  168  A    between atoms: _435  and  _437
REMARK  169  A    between atoms: _437  and  _438
REMARK  170  A    between atoms: _437  and  _440
REMARK  171  A    between atoms: _440  and  _441
REMARK  172  A    between atoms: _446  and  _448
REMARK  173  A    between atoms: _448  and  _449
REMARK  174  A    between atoms: _448  and  _451
REMARK  175  A    between atoms: _451  and  _452
REMARK  176  A    between atoms: _452  and  _453
REMARK  177  A    between atoms: _453  and  _454
REMARK  178  A    between atoms: _454  and  _455
REMARK  179  A    between atoms: _459  and  _461
REMARK  180  A    between atoms: _461  and  _462
REMARK  181  A    between atoms: _461  and  _464
REMARK  182  A    between atoms: _464  and  _465
REMARK  183  A    between atoms: _470  and  _472
REMARK  184  A    between atoms: _472  and  _473
REMARK  185  A    between atoms: _475  and  _477
REMARK  186  A    between atoms: _477  and  _478
REMARK  187  A    between atoms: _477  and  _480
REMARK  188  A    between atoms: _480  and  _481
REMARK  189  A    between atoms: _481  and  _482
REMARK  190  A    between atoms: _482  and  _483
REMARK  191  A    between atoms: _483  and  _484
REMARK  192  A    between atoms: _488  and  _490
REMARK  193  A    between atoms: _490  and  _491
REMARK  194  A    between atoms: _490  and  _493
REMARK  195  A    between atoms: _493  and  _494
REMARK  196  A    between atoms: _494  and  _495
REMARK  197  A    between atoms: _495  and  _496
REMARK  198  A    between atoms: _505  and  _507
REMARK  199  A    between atoms: _507  and  _508
REMARK  200  A    between atoms: _507  and  _510
REMARK  201  A    between atoms: _510  and  _511
REMARK  202  A    between atoms: _516  and  _517
REMARK  203  A    between atoms: _519  and  _521
REMARK  204  A    between atoms: _521  and  _522
REMARK  205  A    between atoms: _521  and  _524
REMARK  206  A    between atoms: _524  and  _525
REMARK  207  A    between atoms: _525  and  _526
REMARK  208  A    between atoms: _526  and  _527
REMARK  209  A    between atoms: _527  and  _528
REMARK  210  A    between atoms: _532  and  _534
REMARK  211  A    between atoms: _534  and  _535
REMARK  212  A    between atoms: _534  and  _537
REMARK  213  A    between atoms: _537  and  _538
REMARK  214  A    between atoms: _540  and  _542
REMARK  215  A    between atoms: _542  and  _543
REMARK  216  A    between atoms: _542  and  _545
REMARK  217  A    between atoms: _545  and  _546
REMARK  218  A    between atoms: _549  and  _551
REMARK  219  A    between atoms: _551  and  _552
REMARK  220  A    between atoms: _551  and  _554
REMARK  221  A    between atoms: _554  and  _555
REMARK  222  A    between atoms: _555  and  _556
REMARK  223  A    between atoms: _559  and  _561
REMARK  224  A    between atoms: _561  and  _562
REMARK  225  A    between atoms: _565  and  _567
REMARK  226  A    between atoms: _567  and  _568
REMARK  227  A    between atoms: _567  and  _570
REMARK  228  A    between atoms: _570  and  _571
REMARK  229  A    between atoms: _573  and  _575
REMARK  230  A    between atoms: _575  and  _576
REMARK  231  A    between atoms: _578  and  _580
REMARK  232  A    between atoms: _580  and  _581
REMARK  233  A    between atoms: _580  and  _583
REMARK  234  A    between atoms: _583  and  _584
REMARK  235  A    between atoms: _587  and  _589
REMARK  236  A    between atoms: _589  and  _590
REMARK  237  A    between atoms: _592  and  _594
REMARK  238  A    between atoms: _594  and  _595
REMARK  239  A    between atoms: _594  and  _597
REMARK  240  A    between atoms: _597  and  _598
REMARK  241  A    between atoms: _603  and  _605
REMARK  242  A    between atoms: _605  and  _606
REMARK  243  A    between atoms: _605  and  _608
REMARK  244  A    between atoms: _608  and  _609
REMARK  245  A    between atoms: _609  and  _610
REMARK  246  A    between atoms: _617  and  _618
REMARK  247  A    between atoms: _618  and  _634
REMARK  248  A    between atoms: _619  and  _621
REMARK  249  A    between atoms: _621  and  _622
REMARK  250  A    between atoms: _622  and  _623
REMARK  251  A    between atoms: _627  and  _629
REMARK  252  A    between atoms: _629  and  _630
REMARK  253  A    between atoms: _629  and  _637
REMARK  254  A    between atoms: _630  and  _631
REMARK  255  A    between atoms: _631  and  _632
REMARK  256  A    between atoms: _632  and  _633
REMARK  257  A    between atoms: _633  and  _634
REMARK  258  A    between atoms: _639  and  _641
REMARK  259  A    between atoms: _641  and  _642
REMARK  260  A    between atoms: _641  and  _644
REMARK  261  A    between atoms: _644  and  _645
REMARK  262  A    between atoms: _648  and  _650
REMARK  263  A    between atoms: _650  and  _651
REMARK  264  A    between atoms: _653  and  _655
REMARK  265  A    between atoms: _655  and  _656
REMARK  266  A    between atoms: _659  and  _661
REMARK  267  A    between atoms: _661  and  _662
REMARK  268  A    between atoms: _661  and  _664
REMARK  269  A    between atoms: _664  and  _665
REMARK  270  A    between atoms: _670  and  _671
REMARK                            x       y       z     vdW  Elec       q    Type
REMARK                         _______ _______ _______ _____ _____    ______ ____
ROOT
ATOM      1  O   HOH     1      31.143  23.969  33.686  0.00  0.00    +0.000 OA
ENDROOT
TORSDOF 0
REMARK  Name = ../refined-set-2016/3g2k/3g2k_pocket.pdb
REMARK  270 active torsions:
REMARK  status: ('A' for Active; 'I' for Inactive)
REMARK    1  A    between atoms: _1  and  _3
REMARK    2  A    between atoms: _3  and  _4
REMARK    3  A    between atoms: _3  and  _6
REMARK    4  A    between atoms: _6  and  _7
REMARK    5  A    between atoms: _12  and  _13
REMARK    6  A    between atoms: _15  and  _17
REMARK    7  A    between atoms: _17  and  _18
REMARK    8  A    between atoms: _17  and  _20
REMARK    9  A    between atoms: _20  and  _21
REMARK   10  A    between atoms: _24  and  _26
REMARK   11  A    between atoms: _26  and  _27
REMARK   12  A    between atoms: _26  and  _29
REMARK   13  A    between atoms: _29  and  _30
REMARK   14  A    between atoms: _30  and  _31
REMARK   15  A    between atoms: _34  and  _36
REMARK   16  A    between atoms: _36  and  _37
REMARK   17  A    between atoms: _36  and  _39
REMARK   18  A    between atoms: _39  and  _40
REMARK   19  A    between atoms: _45  and  _47
REMARK   20  A    between atoms: _47  and  _48
REMARK   21  A    between atoms: _50  and  _52
REMARK   22  A    between atoms: _52  and  _53
REMARK   23  A    between atoms: _55  and  _57
REMARK   24  A    between atoms: _57  and  _58
REMARK   25  A    between atoms: _57  and  _60
REMARK   26  A    between atoms: _60  and  _61
REMARK   27  A    between atoms: _64  and  _66
REMARK   28  A    between atoms: _66  and  _67
REMARK   29  A    between atoms: _69  and  _71
REMARK   30  A    between atoms: _71  and  _72
REMARK   31  A    between atoms: _71  and  _74
REMARK   32  A    between atoms: _74  and  _75
REMARK   33  A    between atoms: _75  and  _76
REMARK   34  A    between atoms: _76  and  _77
REMARK   35  A    between atoms: _86  and  _88
REMARK   36  A    between atoms: _88  and  _89
REMARK   37  A    between atoms: _88  and  _91
REMARK   38  A    between atoms: _91  and  _92
REMARK   39  A    between atoms: _95  and  _97
REMARK   40  A    between atoms: _97  and  _98
REMARK   41  A    between atoms: _101  and  _103
REMARK   42  A    between atoms: _103  and  _104
REMARK   43  A    between atoms: _103  and  _106
REMARK   44  A    between atoms: _106  and  _107
REMARK   45  A    between atoms: _113  and  _115
REMARK   46  A    between atoms: _115  and  _116
REMARK   47  A    between atoms: _115  and  _118
REMARK   48  A    between atoms: _118  and  _119
REMARK   49  A    between atoms: _124  and  _125
REMARK   50  A    between atoms: _128  and  _129
REMARK   51  A    between atoms: _134  and  _136
REMARK   52  A    between atoms: _136  and  _137
REMARK   53  A    between atoms: _136  and  _139
REMARK   54  A    between atoms: _139  and  _140
REMARK   55  A    between atoms: _145  and  _147
REMARK   56  A    between atoms: _147  and  _148
REMARK   57  A    between atoms: _147  and  _150
REMARK   58  A    between atoms: _150  and  _151
REMARK   59  A    between atoms: _154  and  _156
REMARK   60  A    between atoms: _156  and  _157
REMARK   61  A    between atoms: _156  and  _159
REMARK   62  A    between atoms: _159  and  _160
REMARK   63  A    between atoms: _165  and  _167
REMARK   64  A    between atoms: _167  and  _168
REMARK   65  A    between atoms: _167  and  _170
REMARK   66  A    between atoms: _170  and  _171
REMARK   67  A    between atoms: _177  and  _179
REMARK   68  A    between atoms: _179  and  _180
REMARK   69  A    between atoms: _179  and  _182
REMARK   70  A    between atoms: _182  and  _183
REMARK   71  A    between atoms: _189  and  _191
REMARK   72  A    between atoms: _191  and  _192
REMARK   73  A    between atoms: _191  and  _194
REMARK   74  A    between atoms: _194  and  _195
REMARK   75  A    between atoms: _195  and  _196
REMARK   76  A    between atoms: _199  and  _201
REMARK   77  A    between atoms: _201  and  _202
REMARK   78  A    between atoms: _201  and  _204
REMARK   79  A    between atoms: _204  and  _205
REMARK   80  A    between atoms: _205  and  _206
REMARK   81  A    between atoms: _206  and  _207
REMARK   82  A    between atoms: _216  and  _218
REMARK   83  A    between atoms: _218  and  _219
REMARK   84  A    between atoms: _218  and  _221
REMARK   85  A    between atoms: _221  and  _222
REMARK   86  A    between atoms: _222  and  _223
REMARK   87  A    between atoms: _226  and  _228
REMARK   88  A    between atoms: _228  and  _229
REMARK   89  A    between atoms: _228  and  _231
REMARK   90  A    between atoms: _231  and  _232
REMARK   91  A    between atoms: _237  and  _239
REMARK   92  A    between atoms: _239  and  _240
REMARK   93  A    between atoms: _239  and  _242
REMARK   94  A    between atoms: _242  and  _243
REMARK   95  A    between atoms: _246  and  _248
REMARK   96  A    between atoms: _248  and  _249
REMARK   97  A    between atoms: _248  and  _251
REMARK   98  A    between atoms: _251  and  _252
REMARK   99  A    between atoms: _255  and  _257
REMARK  100  A    between atoms: _257  and  _258
REMARK  101  A    between atoms: _257  and  _260
REMARK  102  A    between atoms: _260  and  _261
REMARK  103  A    between atoms: _266  and  _268
REMARK  104  A    between atoms: _268  and  _269
REMARK  105  A    between atoms: _268  and  _271
REMARK  106  A    between atoms: _271  and  _272
REMARK  107  A    between atoms: _277  and  _278
REMARK  108  A    between atoms: _280  and  _282
REMARK  109  A    between atoms: _282  and  _283
REMARK  110  A    between atoms: _282  and  _285
REMARK  111  A    between atoms: _285  and  _286
REMARK  112  A    between atoms: _289  and  _291
REMARK  113  A    between atoms: _291  and  _292
REMARK  114  A    between atoms: _291  and  _294
REMARK  115  A    between atoms: _294  and  _295
REMARK  116  A    between atoms: _300  and  _302
REMARK  117  A    between atoms: _302  and  _303
REMARK  118  A    between atoms: _302  and  _305
REMARK  119  A    between atoms: _305  and  _306
REMARK  120  A    between atoms: _311  and  _313
REMARK  121  A    between atoms: _313  and  _314
REMARK  122  A    between atoms: _313  and  _316
REMARK  123  A    between atoms: _316  and  _317
REMARK  124  A    between atoms: _320  and  _322
REMARK  125  A    between atoms: _322  and  _323
REMARK  126  A    between atoms: _322  and  _325
REMARK  127  A    between atoms: _328  and  _330
REMARK  128  A    between atoms: _330  and  _331
REMARK  129  A    between atoms: _330  and  _333
REMARK  130  A    between atoms: _333  and  _334
REMARK  131  A    between atoms: _337  and  _339
REMARK  132  A    between atoms: _339  and  _340
REMARK  133  A    between atoms: _339  and  _342
REMARK  134  A    between atoms: _342  and  _343
REMARK  135  A    between atoms: _343  and  _344
REMARK  136  A    between atoms: _347  and  _349
REMARK  137  A    between atoms: _349  and  _350
REMARK  138  A    between atoms: _353  and  _355
REMARK  139  A    between atoms: _355  and  _356
REMARK  140  A    between atoms: _355  and  _358
REMARK  141  A    between atoms: _358  and  _359
REMARK  142  A    between atoms: _362  and  _364
REMARK  143  A    between atoms: _364  and  _365
REMARK  144  A    between atoms: _364  and  _367
REMARK  145  A    between atoms: _367  and  _368
REMARK  146  A    between atoms: _368  and  _369
REMARK  147  A    between atoms: _372  and  _374
REMARK  148  A    between atoms: _374  and  _375
REMARK  149  A    between atoms: _374  and  _377
REMARK  150  A    between atoms: _377  and  _378
REMARK  151  A    between atoms: _378  and  _379
REMARK  152  A    between atoms: _379  and  _380
REMARK  153  A    between atoms: _389  and  _391
REMARK  154  A    between atoms: _391  and  _392
REMARK  155  A    between atoms: _391  and  _394
REMARK  156  A    between atoms: _394  and  _395
REMARK  157  A    between atoms: _405  and  _407
REMARK  158  A    between atoms: _407  and  _408
REMARK  159  A    between atoms: _407  and  _410
REMARK  160  A    between atoms: _410  and  _411
REMARK  161  A    between atoms: _416  and  _418
REMARK  162  A    between atoms: _418  and  _419
REMARK  163  A    between atoms: _421  and  _423
REMARK  164  A    between atoms: _423  and  _424
REMARK  165  A    between atoms: _423  and  _426
REMARK  166  A    between atoms: _429  and  _431
REMARK  167  A    between atoms: _431  and  _432
REMARK  168  A    between atoms: _435  and  _437
REMARK  169  A    between atoms: _437  and  _438
REMARK  170  A    between atoms: _437  and  _440
REMARK  171  A    between atoms: _440  and  _441
REMARK  172  A    between atoms: _446  and  _448
REMARK  173  A    between atoms: _448  and  _449
REMARK  174  A    between atoms: _448  and  _451
REMARK  175  A    between atoms: _451  and  _452
REMARK  176  A    between atoms: _452  and  _453
REMARK  177  A    between atoms: _453  and  _454
REMARK  178  A    between atoms: _454  and  _455
REMARK  179  A    between atoms: _459  and  _461
REMARK  180  A    between atoms: _461  and  _462
REMARK  181  A    between atoms: _461  and  _464
REMARK  182  A    between atoms: _464  and  _465
REMARK  183  A    between atoms: _470  and  _472
REMARK  184  A    between atoms: _472  and  _473
REMARK  185  A    between atoms: _475  and  _477
REMARK  186  A    between atoms: _477  and  _478
REMARK  187  A    between atoms: _477  and  _480
REMARK  188  A    between atoms: _480  and  _481
REMARK  189  A    between atoms: _481  and  _482
REMARK  190  A    between atoms: _482  and  _483
REMARK  191  A    between atoms: _483  and  _484
REMARK  192  A    between atoms: _488  and  _490
REMARK  193  A    between atoms: _490  and  _491
REMARK  194  A    between atoms: _490  and  _493
REMARK  195  A    between atoms: _493  and  _494
REMARK  196  A    between atoms: _494  and  _495
REMARK  197  A    between atoms: _495  and  _496
REMARK  198  A    between atoms: _505  and  _507
REMARK  199  A    between atoms: _507  and  _508
REMARK  200  A    between atoms: _507  and  _510
REMARK  201  A    between atoms: _510  and  _511
REMARK  202  A    between atoms: _516  and  _517
REMARK  203  A    between atoms: _519  and  _521
REMARK  204  A    between atoms: _521  and  _522
REMARK  205  A    between atoms: _521  and  _524
REMARK  206  A    between atoms: _524  and  _525
REMARK  207  A    between atoms: _525  and  _526
REMARK  208  A    between atoms: _526  and  _527
REMARK  209  A    between atoms: _527  and  _528
REMARK  210  A    between atoms: _532  and  _534
REMARK  211  A    between atoms: _534  and  _535
REMARK  212  A    between atoms: _534  and  _537
REMARK  213  A    between atoms: _537  and  _538
REMARK  214  A    between atoms: _540  and  _542
REMARK  215  A    between atoms: _542  and  _543
REMARK  216  A    between atoms: _542  and  _545
REMARK  217  A    between atoms: _545  and  _546
REMARK  218  A    between atoms: _549  and  _551
REMARK  219  A    between atoms: _551  and  _552
REMARK  220  A    between atoms: _551  and  _554
REMARK  221  A    between atoms: _554  and  _555
REMARK  222  A    between atoms: _555  and  _556
REMARK  223  A    between atoms: _559  and  _561
REMARK  224  A    between atoms: _561  and  _562
REMARK  225  A    between atoms: _565  and  _567
REMARK  226  A    between atoms: _567  and  _568
REMARK  227  A    between atoms: _567  and  _570
REMARK  228  A    between atoms: _570  and  _571
REMARK  229  A    between atoms: _573  and  _575
REMARK  230  A    between atoms: _575  and  _576
REMARK  231  A    between atoms: _578  and  _580
REMARK  232  A    between atoms: _580  and  _581
REMARK  233  A    between atoms: _580  and  _583
REMARK  234  A    between atoms: _583  and  _584
REMARK  235  A    between atoms: _587  and  _589
REMARK  236  A    between atoms: _589  and  _590
REMARK  237  A    between atoms: _592  and  _594
REMARK  238  A    between atoms: _594  and  _595
REMARK  239  A    between atoms: _594  and  _597
REMARK  240  A    between atoms: _597  and  _598
REMARK  241  A    between atoms: _603  and  _605
REMARK  242  A    between atoms: _605  and  _606
REMARK  243  A    between atoms: _605  and  _608
REMARK  244  A    between atoms: _608  and  _609
REMARK  245  A    between atoms: _609  and  _610
REMARK  246  A    between atoms: _617  and  _618
REMARK  247  A    between atoms: _618  and  _634
REMARK  248  A    between atoms: _619  and  _621
REMARK  249  A    between atoms: _621  and  _622
REMARK  250  A    between atoms: _622  and  _623
REMARK  251  A    between atoms: _627  and  _629
REMARK  252  A    between atoms: _629  and  _630
REMARK  253  A    between atoms: _629  and  _637
REMARK  254  A    between atoms: _630  and  _631
REMARK  255  A    between atoms: _631  and  _632
REMARK  256  A    between atoms: _632  and  _633
REMARK  257  A    between atoms: _633  and  _634
REMARK  258  A    between atoms: _639  and  _641
REMARK  259  A    between atoms: _641  and  _642
REMARK  260  A    between atoms: _641  and  _644
REMARK  261  A    between atoms: _644  and  _645
REMARK  262  A    between atoms: _648  and  _650
REMARK  263  A    between atoms: _650  and  _651
REMARK  264  A    between atoms: _653  and  _655
REMARK  265  A    between atoms: _655  and  _656
REMARK  266  A    between atoms: _659  and  _661
REMARK  267  A    between atoms: _661  and  _662
REMARK  268  A    between atoms: _661  and  _664
REMARK  269  A    between atoms: _664  and  _665
REMARK  270  A    between atoms: _670  and  _671
REMARK                            x       y       z     vdW  Elec       q    Type
REMARK                         _______ _______ _______ _____ _____    ______ ____
ROOT
ATOM      1  O   HOH     1      30.153  26.034  29.166  0.00  0.00    +0.000 OA
ENDROOT
TORSDOF 0
REMARK  Name = ../refined-set-2016/3g2k/3g2k_pocket.pdb
REMARK  270 active torsions:
REMARK  status: ('A' for Active; 'I' for Inactive)
REMARK    1  A    between atoms: _1  and  _3
REMARK    2  A    between atoms: _3  and  _4
REMARK    3  A    between atoms: _3  and  _6
REMARK    4  A    between atoms: _6  and  _7
REMARK    5  A    between atoms: _12  and  _13
REMARK    6  A    between atoms: _15  and  _17
REMARK    7  A    between atoms: _17  and  _18
REMARK    8  A    between atoms: _17  and  _20
REMARK    9  A    between atoms: _20  and  _21
REMARK   10  A    between atoms: _24  and  _26
REMARK   11  A    between atoms: _26  and  _27
REMARK   12  A    between atoms: _26  and  _29
REMARK   13  A    between atoms: _29  and  _30
REMARK   14  A    between atoms: _30  and  _31
REMARK   15  A    between atoms: _34  and  _36
REMARK   16  A    between atoms: _36  and  _37
REMARK   17  A    between atoms: _36  and  _39
REMARK   18  A    between atoms: _39  and  _40
REMARK   19  A    between atoms: _45  and  _47
REMARK   20  A    between atoms: _47  and  _48
REMARK   21  A    between atoms: _50  and  _52
REMARK   22  A    between atoms: _52  and  _53
REMARK   23  A    between atoms: _55  and  _57
REMARK   24  A    between atoms: _57  and  _58
REMARK   25  A    between atoms: _57  and  _60
REMARK   26  A    between atoms: _60  and  _61
REMARK   27  A    between atoms: _64  and  _66
REMARK   28  A    between atoms: _66  and  _67
REMARK   29  A    between atoms: _69  and  _71
REMARK   30  A    between atoms: _71  and  _72
REMARK   31  A    between atoms: _71  and  _74
REMARK   32  A    between atoms: _74  and  _75
REMARK   33  A    between atoms: _75  and  _76
REMARK   34  A    between atoms: _76  and  _77
REMARK   35  A    between atoms: _86  and  _88
REMARK   36  A    between atoms: _88  and  _89
REMARK   37  A    between atoms: _88  and  _91
REMARK   38  A    between atoms: _91  and  _92
REMARK   39  A    between atoms: _95  and  _97
REMARK   40  A    between atoms: _97  and  _98
REMARK   41  A    between atoms: _101  and  _103
REMARK   42  A    between atoms: _103  and  _104
REMARK   43  A    between atoms: _103  and  _106
REMARK   44  A    between atoms: _106  and  _107
REMARK   45  A    between atoms: _113  and  _115
REMARK   46  A    between atoms: _115  and  _116
REMARK   47  A    between atoms: _115  and  _118
REMARK   48  A    between atoms: _118  and  _119
REMARK   49  A    between atoms: _124  and  _125
REMARK   50  A    between atoms: _128  and  _129
REMARK   51  A    between atoms: _134  and  _136
REMARK   52  A    between atoms: _136  and  _137
REMARK   53  A    between atoms: _136  and  _139
REMARK   54  A    between atoms: _139  and  _140
REMARK   55  A    between atoms: _145  and  _147
REMARK   56  A    between atoms: _147  and  _148
REMARK   57  A    between atoms: _147  and  _150
REMARK   58  A    between atoms: _150  and  _151
REMARK   59  A    between atoms: _154  and  _156
REMARK   60  A    between atoms: _156  and  _157
REMARK   61  A    between atoms: _156  and  _159
REMARK   62  A    between atoms: _159  and  _160
REMARK   63  A    between atoms: _165  and  _167
REMARK   64  A    between atoms: _167  and  _168
REMARK   65  A    between atoms: _167  and  _170
REMARK   66  A    between atoms: _170  and  _171
REMARK   67  A    between atoms: _177  and  _179
REMARK   68  A    between atoms: _179  and  _180
REMARK   69  A    between atoms: _179  and  _182
REMARK   70  A    between atoms: _182  and  _183
REMARK   71  A    between atoms: _189  and  _191
REMARK   72  A    between atoms: _191  and  _192
REMARK   73  A    between atoms: _191  and  _194
REMARK   74  A    between atoms: _194  and  _195
REMARK   75  A    between atoms: _195  and  _196
REMARK   76  A    between atoms: _199  and  _201
REMARK   77  A    between atoms: _201  and  _202
REMARK   78  A    between atoms: _201  and  _204
REMARK   79  A    between atoms: _204  and  _205
REMARK   80  A    between atoms: _205  and  _206
REMARK   81  A    between atoms: _206  and  _207
REMARK   82  A    between atoms: _216  and  _218
REMARK   83  A    between atoms: _218  and  _219
REMARK   84  A    between atoms: _218  and  _221
REMARK   85  A    between atoms: _221  and  _222
REMARK   86  A    between atoms: _222  and  _223
REMARK   87  A    between atoms: _226  and  _228
REMARK   88  A    between atoms: _228  and  _229
REMARK   89  A    between atoms: _228  and  _231
REMARK   90  A    between atoms: _231  and  _232
REMARK   91  A    between atoms: _237  and  _239
REMARK   92  A    between atoms: _239  and  _240
REMARK   93  A    between atoms: _239  and  _242
REMARK   94  A    between atoms: _242  and  _243
REMARK   95  A    between atoms: _246  and  _248
REMARK   96  A    between atoms: _248  and  _249
REMARK   97  A    between atoms: _248  and  _251
REMARK   98  A    between atoms: _251  and  _252
REMARK   99  A    between atoms: _255  and  _257
REMARK  100  A    between atoms: _257  and  _258
REMARK  101  A    between atoms: _257  and  _260
REMARK  102  A    between atoms: _260  and  _261
REMARK  103  A    between atoms: _266  and  _268
REMARK  104  A    between atoms: _268  and  _269
REMARK  105  A    between atoms: _268  and  _271
REMARK  106  A    between atoms: _271  and  _272
REMARK  107  A    between atoms: _277  and  _278
REMARK  108  A    between atoms: _280  and  _282
REMARK  109  A    between atoms: _282  and  _283
REMARK  110  A    between atoms: _282  and  _285
REMARK  111  A    between atoms: _285  and  _286
REMARK  112  A    between atoms: _289  and  _291
REMARK  113  A    between atoms: _291  and  _292
REMARK  114  A    between atoms: _291  and  _294
REMARK  115  A    between atoms: _294  and  _295
REMARK  116  A    between atoms: _300  and  _302
REMARK  117  A    between atoms: _302  and  _303
REMARK  118  A    between atoms: _302  and  _305
REMARK  119  A    between atoms: _305  and  _306
REMARK  120  A    between atoms: _311  and  _313
REMARK  121  A    between atoms: _313  and  _314
REMARK  122  A    between atoms: _313  and  _316
REMARK  123  A    between atoms: _316  and  _317
REMARK  124  A    between atoms: _320  and  _322
REMARK  125  A    between atoms: _322  and  _323
REMARK  126  A    between atoms: _322  and  _325
REMARK  127  A    between atoms: _328  and  _330
REMARK  128  A    between atoms: _330  and  _331
REMARK  129  A    between atoms: _330  and  _333
REMARK  130  A    between atoms: _333  and  _334
REMARK  131  A    between atoms: _337  and  _339
REMARK  132  A    between atoms: _339  and  _340
REMARK  133  A    between atoms: _339  and  _342
REMARK  134  A    between atoms: _342  and  _343
REMARK  135  A    between atoms: _343  and  _344
REMARK  136  A    between atoms: _347  and  _349
REMARK  137  A    between atoms: _349  and  _350
REMARK  138  A    between atoms: _353  and  _355
REMARK  139  A    between atoms: _355  and  _356
REMARK  140  A    between atoms: _355  and  _358
REMARK  141  A    between atoms: _358  and  _359
REMARK  142  A    between atoms: _362  and  _364
REMARK  143  A    between atoms: _364  and  _365
REMARK  144  A    between atoms: _364  and  _367
REMARK  145  A    between atoms: _367  and  _368
REMARK  146  A    between atoms: _368  and  _369
REMARK  147  A    between atoms: _372  and  _374
REMARK  148  A    between atoms: _374  and  _375
REMARK  149  A    between atoms: _374  and  _377
REMARK  150  A    between atoms: _377  and  _378
REMARK  151  A    between atoms: _378  and  _379
REMARK  152  A    between atoms: _379  and  _380
REMARK  153  A    between atoms: _389  and  _391
REMARK  154  A    between atoms: _391  and  _392
REMARK  155  A    between atoms: _391  and  _394
REMARK  156  A    between atoms: _394  and  _395
REMARK  157  A    between atoms: _405  and  _407
REMARK  158  A    between atoms: _407  and  _408
REMARK  159  A    between atoms: _407  and  _410
REMARK  160  A    between atoms: _410  and  _411
REMARK  161  A    between atoms: _416  and  _418
REMARK  162  A    between atoms: _418  and  _419
REMARK  163  A    between atoms: _421  and  _423
REMARK  164  A    between atoms: _423  and  _424
REMARK  165  A    between atoms: _423  and  _426
REMARK  166  A    between atoms: _429  and  _431
REMARK  167  A    between atoms: _431  and  _432
REMARK  168  A    between atoms: _435  and  _437
REMARK  169  A    between atoms: _437  and  _438
REMARK  170  A    between atoms: _437  and  _440
REMARK  171  A    between atoms: _440  and  _441
REMARK  172  A    between atoms: _446  and  _448
REMARK  173  A    between atoms: _448  and  _449
REMARK  174  A    between atoms: _448  and  _451
REMARK  175  A    between atoms: _451  and  _452
REMARK  176  A    between atoms: _452  and  _453
REMARK  177  A    between atoms: _453  and  _454
REMARK  178  A    between atoms: _454  and  _455
REMARK  179  A    between atoms: _459  and  _461
REMARK  180  A    between atoms: _461  and  _462
REMARK  181  A    between atoms: _461  and  _464
REMARK  182  A    between atoms: _464  and  _465
REMARK  183  A    between atoms: _470  and  _472
REMARK  184  A    between atoms: _472  and  _473
REMARK  185  A    between atoms: _475  and  _477
REMARK  186  A    between atoms: _477  and  _478
REMARK  187  A    between atoms: _477  and  _480
REMARK  188  A    between atoms: _480  and  _481
REMARK  189  A    between atoms: _481  and  _482
REMARK  190  A    between atoms: _482  and  _483
REMARK  191  A    between atoms: _483  and  _484
REMARK  192  A    between atoms: _488  and  _490
REMARK  193  A    between atoms: _490  and  _491
REMARK  194  A    between atoms: _490  and  _493
REMARK  195  A    between atoms: _493  and  _494
REMARK  196  A    between atoms: _494  and  _495
REMARK  197  A    between atoms: _495  and  _496
REMARK  198  A    between atoms: _505  and  _507
REMARK  199  A    between atoms: _507  and  _508
REMARK  200  A    between atoms: _507  and  _510
REMARK  201  A    between atoms: _510  and  _511
REMARK  202  A    between atoms: _516  and  _517
REMARK  203  A    between atoms: _519  and  _521
REMARK  204  A    between atoms: _521  and  _522
REMARK  205  A    between atoms: _521  and  _524
REMARK  206  A    between atoms: _524  and  _525
REMARK  207  A    between atoms: _525  and  _526
REMARK  208  A    between atoms: _526  and  _527
REMARK  209  A    between atoms: _527  and  _528
REMARK  210  A    between atoms: _532  and  _534
REMARK  211  A    between atoms: _534  and  _535
REMARK  212  A    between atoms: _534  and  _537
REMARK  213  A    between atoms: _537  and  _538
REMARK  214  A    between atoms: _540  and  _542
REMARK  215  A    between atoms: _542  and  _543
REMARK  216  A    between atoms: _542  and  _545
REMARK  217  A    between atoms: _545  and  _546
REMARK  218  A    between atoms: _549  and  _551
REMARK  219  A    between atoms: _551  and  _552
REMARK  220  A    between atoms: _551  and  _554
REMARK  221  A    between atoms: _554  and  _555
REMARK  222  A    between atoms: _555  and  _556
REMARK  223  A    between atoms: _559  and  _561
REMARK  224  A    between atoms: _561  and  _562
REMARK  225  A    between atoms: _565  and  _567
REMARK  226  A    between atoms: _567  and  _568
REMARK  227  A    between atoms: _567  and  _570
REMARK  228  A    between atoms: _570  and  _571
REMARK  229  A    between atoms: _573  and  _575
REMARK  230  A    between atoms: _575  and  _576
REMARK  231  A    between atoms: _578  and  _580
REMARK  232  A    between atoms: _580  and  _581
REMARK  233  A    between atoms: _580  and  _583
REMARK  234  A    between atoms: _583  and  _584
REMARK  235  A    between atoms: _587  and  _589
REMARK  236  A    between atoms: _589  and  _590
REMARK  237  A    between atoms: _592  and  _594
REMARK  238  A    between atoms: _594  and  _595
REMARK  239  A    between atoms: _594  and  _597
REMARK  240  A    between atoms: _597  and  _598
REMARK  241  A    between atoms: _603  and  _605
REMARK  242  A    between atoms: _605  and  _606
REMARK  243  A    between atoms: _605  and  _608
REMARK  244  A    between atoms: _608  and  _609
REMARK  245  A    between atoms: _609  and  _610
REMARK  246  A    between atoms: _617  and  _618
REMARK  247  A    between atoms: _618  and  _634
REMARK  248  A    between atoms: _619  and  _621
REMARK  249  A    between atoms: _621  and  _622
REMARK  250  A    between atoms: _622  and  _623
REMARK  251  A    between atoms: _627  and  _629
REMARK  252  A    between atoms: _629  and  _630
REMARK  253  A    between atoms: _629  and  _637
REMARK  254  A    between atoms: _630  and  _631
REMARK  255  A    between atoms: _631  and  _632
REMARK  256  A    between atoms: _632  and  _633
REMARK  257  A    between atoms: _633  and  _634
REMARK  258  A    between atoms: _639  and  _641
REMARK  259  A    between atoms: _641  and  _642
REMARK  260  A    between atoms: _641  and  _644
REMARK  261  A    between atoms: _644  and  _645
REMARK  262  A    between atoms: _648  and  _650
REMARK  263  A    between atoms: _650  and  _651
REMARK  264  A    between atoms: _653  and  _655
REMARK  265  A    between atoms: _655  and  _656
REMARK  266  A    between atoms: _659  and  _661
REMARK  267  A    between atoms: _661  and  _662
REMARK  268  A    between atoms: _661  and  _664
REMARK  269  A    between atoms: _664  and  _665
REMARK  270  A    between atoms: _670  and  _671
REMARK                            x       y       z     vdW  Elec       q    Type
REMARK                         _______ _______ _______ _____ _____    ______ ____
ROOT
ATOM      1  O   HOH     1      28.133  27.447  27.717  0.00  0.00    +0.000 OA
ENDROOT
TORSDOF 0
REMARK  Name = ../refined-set-2016/3g2k/3g2k_pocket.pdb
REMARK  270 active torsions:
REMARK  status: ('A' for Active; 'I' for Inactive)
REMARK    1  A    between atoms: _1  and  _3
REMARK    2  A    between atoms: _3  and  _4
REMARK    3  A    between atoms: _3  and  _6
REMARK    4  A    between atoms: _6  and  _7
REMARK    5  A    between atoms: _12  and  _13
REMARK    6  A    between atoms: _15  and  _17
REMARK    7  A    between atoms: _17  and  _18
REMARK    8  A    between atoms: _17  and  _20
REMARK    9  A    between atoms: _20  and  _21
REMARK   10  A    between atoms: _24  and  _26
REMARK   11  A    between atoms: _26  and  _27
REMARK   12  A    between atoms: _26  and  _29
REMARK   13  A    between atoms: _29  and  _30
REMARK   14  A    between atoms: _30  and  _31
REMARK   15  A    between atoms: _34  and  _36
REMARK   16  A    between atoms: _36  and  _37
REMARK   17  A    between atoms: _36  and  _39
REMARK   18  A    between atoms: _39  and  _40
REMARK   19  A    between atoms: _45  and  _47
REMARK   20  A    between atoms: _47  and  _48
REMARK   21  A    between atoms: _50  and  _52
REMARK   22  A    between atoms: _52  and  _53
REMARK   23  A    between atoms: _55  and  _57
REMARK   24  A    between atoms: _57  and  _58
REMARK   25  A    between atoms: _57  and  _60
REMARK   26  A    between atoms: _60  and  _61
REMARK   27  A    between atoms: _64  and  _66
REMARK   28  A    between atoms: _66  and  _67
REMARK   29  A    between atoms: _69  and  _71
REMARK   30  A    between atoms: _71  and  _72
REMARK   31  A    between atoms: _71  and  _74
REMARK   32  A    between atoms: _74  and  _75
REMARK   33  A    between atoms: _75  and  _76
REMARK   34  A    between atoms: _76  and  _77
REMARK   35  A    between atoms: _86  and  _88
REMARK   36  A    between atoms: _88  and  _89
REMARK   37  A    between atoms: _88  and  _91
REMARK   38  A    between atoms: _91  and  _92
REMARK   39  A    between atoms: _95  and  _97
REMARK   40  A    between atoms: _97  and  _98
REMARK   41  A    between atoms: _101  and  _103
REMARK   42  A    between atoms: _103  and  _104
REMARK   43  A    between atoms: _103  and  _106
REMARK   44  A    between atoms: _106  and  _107
REMARK   45  A    between atoms: _113  and  _115
REMARK   46  A    between atoms: _115  and  _116
REMARK   47  A    between atoms: _115  and  _118
REMARK   48  A    between atoms: _118  and  _119
REMARK   49  A    between atoms: _124  and  _125
REMARK   50  A    between atoms: _128  and  _129
REMARK   51  A    between atoms: _134  and  _136
REMARK   52  A    between atoms: _136  and  _137
REMARK   53  A    between atoms: _136  and  _139
REMARK   54  A    between atoms: _139  and  _140
REMARK   55  A    between atoms: _145  and  _147
REMARK   56  A    between atoms: _147  and  _148
REMARK   57  A    between atoms: _147  and  _150
REMARK   58  A    between atoms: _150  and  _151
REMARK   59  A    between atoms: _154  and  _156
REMARK   60  A    between atoms: _156  and  _157
REMARK   61  A    between atoms: _156  and  _159
REMARK   62  A    between atoms: _159  and  _160
REMARK   63  A    between atoms: _165  and  _167
REMARK   64  A    between atoms: _167  and  _168
REMARK   65  A    between atoms: _167  and  _170
REMARK   66  A    between atoms: _170  and  _171
REMARK   67  A    between atoms: _177  and  _179
REMARK   68  A    between atoms: _179  and  _180
REMARK   69  A    between atoms: _179  and  _182
REMARK   70  A    between atoms: _182  and  _183
REMARK   71  A    between atoms: _189  and  _191
REMARK   72  A    between atoms: _191  and  _192
REMARK   73  A    between atoms: _191  and  _194
REMARK   74  A    between atoms: _194  and  _195
REMARK   75  A    between atoms: _195  and  _196
REMARK   76  A    between atoms: _199  and  _201
REMARK   77  A    between atoms: _201  and  _202
REMARK   78  A    between atoms: _201  and  _204
REMARK   79  A    between atoms: _204  and  _205
REMARK   80  A    between atoms: _205  and  _206
REMARK   81  A    between atoms: _206  and  _207
REMARK   82  A    between atoms: _216  and  _218
REMARK   83  A    between atoms: _218  and  _219
REMARK   84  A    between atoms: _218  and  _221
REMARK   85  A    between atoms: _221  and  _222
REMARK   86  A    between atoms: _222  and  _223
REMARK   87  A    between atoms: _226  and  _228
REMARK   88  A    between atoms: _228  and  _229
REMARK   89  A    between atoms: _228  and  _231
REMARK   90  A    between atoms: _231  and  _232
REMARK   91  A    between atoms: _237  and  _239
REMARK   92  A    between atoms: _239  and  _240
REMARK   93  A    between atoms: _239  and  _242
REMARK   94  A    between atoms: _242  and  _243
REMARK   95  A    between atoms: _246  and  _248
REMARK   96  A    between atoms: _248  and  _249
REMARK   97  A    between atoms: _248  and  _251
REMARK   98  A    between atoms: _251  and  _252
REMARK   99  A    between atoms: _255  and  _257
REMARK  100  A    between atoms: _257  and  _258
REMARK  101  A    between atoms: _257  and  _260
REMARK  102  A    between atoms: _260  and  _261
REMARK  103  A    between atoms: _266  and  _268
REMARK  104  A    between atoms: _268  and  _269
REMARK  105  A    between atoms: _268  and  _271
REMARK  106  A    between atoms: _271  and  _272
REMARK  107  A    between atoms: _277  and  _278
REMARK  108  A    between atoms: _280  and  _282
REMARK  109  A    between atoms: _282  and  _283
REMARK  110  A    between atoms: _282  and  _285
REMARK  111  A    between atoms: _285  and  _286
REMARK  112  A    between atoms: _289  and  _291
REMARK  113  A    between atoms: _291  and  _292
REMARK  114  A    between atoms: _291  and  _294
REMARK  115  A    between atoms: _294  and  _295
REMARK  116  A    between atoms: _300  and  _302
REMARK  117  A    between atoms: _302  and  _303
REMARK  118  A    between atoms: _302  and  _305
REMARK  119  A    between atoms: _305  and  _306
REMARK  120  A    between atoms: _311  and  _313
REMARK  121  A    between atoms: _313  and  _314
REMARK  122  A    between atoms: _313  and  _316
REMARK  123  A    between atoms: _316  and  _317
REMARK  124  A    between atoms: _320  and  _322
REMARK  125  A    between atoms: _322  and  _323
REMARK  126  A    between atoms: _322  and  _325
REMARK  127  A    between atoms: _328  and  _330
REMARK  128  A    between atoms: _330  and  _331
REMARK  129  A    between atoms: _330  and  _333
REMARK  130  A    between atoms: _333  and  _334
REMARK  131  A    between atoms: _337  and  _339
REMARK  132  A    between atoms: _339  and  _340
REMARK  133  A    between atoms: _339  and  _342
REMARK  134  A    between atoms: _342  and  _343
REMARK  135  A    between atoms: _343  and  _344
REMARK  136  A    between atoms: _347  and  _349
REMARK  137  A    between atoms: _349  and  _350
REMARK  138  A    between atoms: _353  and  _355
REMARK  139  A    between atoms: _355  and  _356
REMARK  140  A    between atoms: _355  and  _358
REMARK  141  A    between atoms: _358  and  _359
REMARK  142  A    between atoms: _362  and  _364
REMARK  143  A    between atoms: _364  and  _365
REMARK  144  A    between atoms: _364  and  _367
REMARK  145  A    between atoms: _367  and  _368
REMARK  146  A    between atoms: _368  and  _369
REMARK  147  A    between atoms: _372  and  _374
REMARK  148  A    between atoms: _374  and  _375
REMARK  149  A    between atoms: _374  and  _377
REMARK  150  A    between atoms: _377  and  _378
REMARK  151  A    between atoms: _378  and  _379
REMARK  152  A    between atoms: _379  and  _380
REMARK  153  A    between atoms: _389  and  _391
REMARK  154  A    between atoms: _391  and  _392
REMARK  155  A    between atoms: _391  and  _394
REMARK  156  A    between atoms: _394  and  _395
REMARK  157  A    between atoms: _405  and  _407
REMARK  158  A    between atoms: _407  and  _408
REMARK  159  A    between atoms: _407  and  _410
REMARK  160  A    between atoms: _410  and  _411
REMARK  161  A    between atoms: _416  and  _418
REMARK  162  A    between atoms: _418  and  _419
REMARK  163  A    between atoms: _421  and  _423
REMARK  164  A    between atoms: _423  and  _424
REMARK  165  A    between atoms: _423  and  _426
REMARK  166  A    between atoms: _429  and  _431
REMARK  167  A    between atoms: _431  and  _432
REMARK  168  A    between atoms: _435  and  _437
REMARK  169  A    between atoms: _437  and  _438
REMARK  170  A    between atoms: _437  and  _440
REMARK  171  A    between atoms: _440  and  _441
REMARK  172  A    between atoms: _446  and  _448
REMARK  173  A    between atoms: _448  and  _449
REMARK  174  A    between atoms: _448  and  _451
REMARK  175  A    between atoms: _451  and  _452
REMARK  176  A    between atoms: _452  and  _453
REMARK  177  A    between atoms: _453  and  _454
REMARK  178  A    between atoms: _454  and  _455
REMARK  179  A    between atoms: _459  and  _461
REMARK  180  A    between atoms: _461  and  _462
REMARK  181  A    between atoms: _461  and  _464
REMARK  182  A    between atoms: _464  and  _465
REMARK  183  A    between atoms: _470  and  _472
REMARK  184  A    between atoms: _472  and  _473
REMARK  185  A    between atoms: _475  and  _477
REMARK  186  A    between atoms: _477  and  _478
REMARK  187  A    between atoms: _477  and  _480
REMARK  188  A    between atoms: _480  and  _481
REMARK  189  A    between atoms: _481  and  _482
REMARK  190  A    between atoms: _482  and  _483
REMARK  191  A    between atoms: _483  and  _484
REMARK  192  A    between atoms: _488  and  _490
REMARK  193  A    between atoms: _490  and  _491
REMARK  194  A    between atoms: _490  and  _493
REMARK  195  A    between atoms: _493  and  _494
REMARK  196  A    between atoms: _494  and  _495
REMARK  197  A    between atoms: _495  and  _496
REMARK  198  A    between atoms: _505  and  _507
REMARK  199  A    between atoms: _507  and  _508
REMARK  200  A    between atoms: _507  and  _510
REMARK  201  A    between atoms: _510  and  _511
REMARK  202  A    between atoms: _516  and  _517
REMARK  203  A    between atoms: _519  and  _521
REMARK  204  A    between atoms: _521  and  _522
REMARK  205  A    between atoms: _521  and  _524
REMARK  206  A    between atoms: _524  and  _525
REMARK  207  A    between atoms: _525  and  _526
REMARK  208  A    between atoms: _526  and  _527
REMARK  209  A    between atoms: _527  and  _528
REMARK  210  A    between atoms: _532  and  _534
REMARK  211  A    between atoms: _534  and  _535
REMARK  212  A    between atoms: _534  and  _537
REMARK  213  A    between atoms: _537  and  _538
REMARK  214  A    between atoms: _540  and  _542
REMARK  215  A    between atoms: _542  and  _543
REMARK  216  A    between atoms: _542  and  _545
REMARK  217  A    between atoms: _545  and  _546
REMARK  218  A    between atoms: _549  and  _551
REMARK  219  A    between atoms: _551  and  _552
REMARK  220  A    between atoms: _551  and  _554
REMARK  221  A    between atoms: _554  and  _555
REMARK  222  A    between atoms: _555  and  _556
REMARK  223  A    between atoms: _559  and  _561
REMARK  224  A    between atoms: _561  and  _562
REMARK  225  A    between atoms: _565  and  _567
REMARK  226  A    between atoms: _567  and  _568
REMARK  227  A    between atoms: _567  and  _570
REMARK  228  A    between atoms: _570  and  _571
REMARK  229  A    between atoms: _573  and  _575
REMARK  230  A    between atoms: _575  and  _576
REMARK  231  A    between atoms: _578  and  _580
REMARK  232  A    between atoms: _580  and  _581
REMARK  233  A    between atoms: _580  and  _583
REMARK  234  A    between atoms: _583  and  _584
REMARK  235  A    between atoms: _587  and  _589
REMARK  236  A    between atoms: _589  and  _590
REMARK  237  A    between atoms: _592  and  _594
REMARK  238  A    between atoms: _594  and  _595
REMARK  239  A    between atoms: _594  and  _597
REMARK  240  A    between atoms: _597  and  _598
REMARK  241  A    between atoms: _603  and  _605
REMARK  242  A    between atoms: _605  and  _606
REMARK  243  A    between atoms: _605  and  _608
REMARK  244  A    between atoms: _608  and  _609
REMARK  245  A    between atoms: _609  and  _610
REMARK  246  A    between atoms: _617  and  _618
REMARK  247  A    between atoms: _618  and  _634
REMARK  248  A    between atoms: _619  and  _621
REMARK  249  A    between atoms: _621  and  _622
REMARK  250  A    between atoms: _622  and  _623
REMARK  251  A    between atoms: _627  and  _629
REMARK  252  A    between atoms: _629  and  _630
REMARK  253  A    between atoms: _629  and  _637
REMARK  254  A    between atoms: _630  and  _631
REMARK  255  A    between atoms: _631  and  _632
REMARK  256  A    between atoms: _632  and  _633
REMARK  257  A    between atoms: _633  and  _634
REMARK  258  A    between atoms: _639  and  _641
REMARK  259  A    between atoms: _641  and  _642
REMARK  260  A    between atoms: _641  and  _644
REMARK  261  A    between atoms: _644  and  _645
REMARK  262  A    between atoms: _648  and  _650
REMARK  263  A    between atoms: _650  and  _651
REMARK  264  A    between atoms: _653  and  _655
REMARK  265  A    between atoms: _655  and  _656
REMARK  266  A    between atoms: _659  and  _661
REMARK  267  A    between atoms: _661  and  _662
REMARK  268  A    between atoms: _661  and  _664
REMARK  269  A    between atoms: _664  and  _665
REMARK  270  A    between atoms: _670  and  _671
REMARK                            x       y       z     vdW  Elec       q    Type
REMARK                         _______ _______ _______ _____ _____    ______ ____
ROOT
ATOM      1  O   HOH     1      26.943  23.401  21.749  0.00  0.00    +0.000 OA
ENDROOT
TORSDOF 0
REMARK  Name = ../refined-set-2016/3g2k/3g2k_pocket.pdb
REMARK  270 active torsions:
REMARK  status: ('A' for Active; 'I' for Inactive)
REMARK    1  A    between atoms: _1  and  _3
REMARK    2  A    between atoms: _3  and  _4
REMARK    3  A    between atoms: _3  and  _6
REMARK    4  A    between atoms: _6  and  _7
REMARK    5  A    between atoms: _12  and  _13
REMARK    6  A    between atoms: _15  and  _17
REMARK    7  A    between atoms: _17  and  _18
REMARK    8  A    between atoms: _17  and  _20
REMARK    9  A    between atoms: _20  and  _21
REMARK   10  A    between atoms: _24  and  _26
REMARK   11  A    between atoms: _26  and  _27
REMARK   12  A    between atoms: _26  and  _29
REMARK   13  A    between atoms: _29  and  _30
REMARK   14  A    between atoms: _30  and  _31
REMARK   15  A    between atoms: _34  and  _36
REMARK   16  A    between atoms: _36  and  _37
REMARK   17  A    between atoms: _36  and  _39
REMARK   18  A    between atoms: _39  and  _40
REMARK   19  A    between atoms: _45  and  _47
REMARK   20  A    between atoms: _47  and  _48
REMARK   21  A    between atoms: _50  and  _52
REMARK   22  A    between atoms: _52  and  _53
REMARK   23  A    between atoms: _55  and  _57
REMARK   24  A    between atoms: _57  and  _58
REMARK   25  A    between atoms: _57  and  _60
REMARK   26  A    between atoms: _60  and  _61
REMARK   27  A    between atoms: _64  and  _66
REMARK   28  A    between atoms: _66  and  _67
REMARK   29  A    between atoms: _69  and  _71
REMARK   30  A    between atoms: _71  and  _72
REMARK   31  A    between atoms: _71  and  _74
REMARK   32  A    between atoms: _74  and  _75
REMARK   33  A    between atoms: _75  and  _76
REMARK   34  A    between atoms: _76  and  _77
REMARK   35  A    between atoms: _86  and  _88
REMARK   36  A    between atoms: _88  and  _89
REMARK   37  A    between atoms: _88  and  _91
REMARK   38  A    between atoms: _91  and  _92
REMARK   39  A    between atoms: _95  and  _97
REMARK   40  A    between atoms: _97  and  _98
REMARK   41  A    between atoms: _101  and  _103
REMARK   42  A    between atoms: _103  and  _104
REMARK   43  A    between atoms: _103  and  _106
REMARK   44  A    between atoms: _106  and  _107
REMARK   45  A    between atoms: _113  and  _115
REMARK   46  A    between atoms: _115  and  _116
REMARK   47  A    between atoms: _115  and  _118
REMARK   48  A    between atoms: _118  and  _119
REMARK   49  A    between atoms: _124  and  _125
REMARK   50  A    between atoms: _128  and  _129
REMARK   51  A    between atoms: _134  and  _136
REMARK   52  A    between atoms: _136  and  _137
REMARK   53  A    between atoms: _136  and  _139
REMARK   54  A    between atoms: _139  and  _140
REMARK   55  A    between atoms: _145  and  _147
REMARK   56  A    between atoms: _147  and  _148
REMARK   57  A    between atoms: _147  and  _150
REMARK   58  A    between atoms: _150  and  _151
REMARK   59  A    between atoms: _154  and  _156
REMARK   60  A    between atoms: _156  and  _157
REMARK   61  A    between atoms: _156  and  _159
REMARK   62  A    between atoms: _159  and  _160
REMARK   63  A    between atoms: _165  and  _167
REMARK   64  A    between atoms: _167  and  _168
REMARK   65  A    between atoms: _167  and  _170
REMARK   66  A    between atoms: _170  and  _171
REMARK   67  A    between atoms: _177  and  _179
REMARK   68  A    between atoms: _179  and  _180
REMARK   69  A    between atoms: _179  and  _182
REMARK   70  A    between atoms: _182  and  _183
REMARK   71  A    between atoms: _189  and  _191
REMARK   72  A    between atoms: _191  and  _192
REMARK   73  A    between atoms: _191  and  _194
REMARK   74  A    between atoms: _194  and  _195
REMARK   75  A    between atoms: _195  and  _196
REMARK   76  A    between atoms: _199  and  _201
REMARK   77  A    between atoms: _201  and  _202
REMARK   78  A    between atoms: _201  and  _204
REMARK   79  A    between atoms: _204  and  _205
REMARK   80  A    between atoms: _205  and  _206
REMARK   81  A    between atoms: _206  and  _207
REMARK   82  A    between atoms: _216  and  _218
REMARK   83  A    between atoms: _218  and  _219
REMARK   84  A    between atoms: _218  and  _221
REMARK   85  A    between atoms: _221  and  _222
REMARK   86  A    between atoms: _222  and  _223
REMARK   87  A    between atoms: _226  and  _228
REMARK   88  A    between atoms: _228  and  _229
REMARK   89  A    between atoms: _228  and  _231
REMARK   90  A    between atoms: _231  and  _232
REMARK   91  A    between atoms: _237  and  _239
REMARK   92  A    between atoms: _239  and  _240
REMARK   93  A    between atoms: _239  and  _242
REMARK   94  A    between atoms: _242  and  _243
REMARK   95  A    between atoms: _246  and  _248
REMARK   96  A    between atoms: _248  and  _249
REMARK   97  A    between atoms: _248  and  _251
REMARK   98  A    between atoms: _251  and  _252
REMARK   99  A    between atoms: _255  and  _257
REMARK  100  A    between atoms: _257  and  _258
REMARK  101  A    between atoms: _257  and  _260
REMARK  102  A    between atoms: _260  and  _261
REMARK  103  A    between atoms: _266  and  _268
REMARK  104  A    between atoms: _268  and  _269
REMARK  105  A    between atoms: _268  and  _271
REMARK  106  A    between atoms: _271  and  _272
REMARK  107  A    between atoms: _277  and  _278
REMARK  108  A    between atoms: _280  and  _282
REMARK  109  A    between atoms: _282  and  _283
REMARK  110  A    between atoms: _282  and  _285
REMARK  111  A    between atoms: _285  and  _286
REMARK  112  A    between atoms: _289  and  _291
REMARK  113  A    between atoms: _291  and  _292
REMARK  114  A    between atoms: _291  and  _294
REMARK  115  A    between atoms: _294  and  _295
REMARK  116  A    between atoms: _300  and  _302
REMARK  117  A    between atoms: _302  and  _303
REMARK  118  A    between atoms: _302  and  _305
REMARK  119  A    between atoms: _305  and  _306
REMARK  120  A    between atoms: _311  and  _313
REMARK  121  A    between atoms: _313  and  _314
REMARK  122  A    between atoms: _313  and  _316
REMARK  123  A    between atoms: _316  and  _317
REMARK  124  A    between atoms: _320  and  _322
REMARK  125  A    between atoms: _322  and  _323
REMARK  126  A    between atoms: _322  and  _325
REMARK  127  A    between atoms: _328  and  _330
REMARK  128  A    between atoms: _330  and  _331
REMARK  129  A    between atoms: _330  and  _333
REMARK  130  A    between atoms: _333  and  _334
REMARK  131  A    between atoms: _337  and  _339
REMARK  132  A    between atoms: _339  and  _340
REMARK  133  A    between atoms: _339  and  _342
REMARK  134  A    between atoms: _342  and  _343
REMARK  135  A    between atoms: _343  and  _344
REMARK  136  A    between atoms: _347  and  _349
REMARK  137  A    between atoms: _349  and  _350
REMARK  138  A    between atoms: _353  and  _355
REMARK  139  A    between atoms: _355  and  _356
REMARK  140  A    between atoms: _355  and  _358
REMARK  141  A    between atoms: _358  and  _359
REMARK  142  A    between atoms: _362  and  _364
REMARK  143  A    between atoms: _364  and  _365
REMARK  144  A    between atoms: _364  and  _367
REMARK  145  A    between atoms: _367  and  _368
REMARK  146  A    between atoms: _368  and  _369
REMARK  147  A    between atoms: _372  and  _374
REMARK  148  A    between atoms: _374  and  _375
REMARK  149  A    between atoms: _374  and  _377
REMARK  150  A    between atoms: _377  and  _378
REMARK  151  A    between atoms: _378  and  _379
REMARK  152  A    between atoms: _379  and  _380
REMARK  153  A    between atoms: _389  and  _391
REMARK  154  A    between atoms: _391  and  _392
REMARK  155  A    between atoms: _391  and  _394
REMARK  156  A    between atoms: _394  and  _395
REMARK  157  A    between atoms: _405  and  _407
REMARK  158  A    between atoms: _407  and  _408
REMARK  159  A    between atoms: _407  and  _410
REMARK  160  A    between atoms: _410  and  _411
REMARK  161  A    between atoms: _416  and  _418
REMARK  162  A    between atoms: _418  and  _419
REMARK  163  A    between atoms: _421  and  _423
REMARK  164  A    between atoms: _423  and  _424
REMARK  165  A    between atoms: _423  and  _426
REMARK  166  A    between atoms: _429  and  _431
REMARK  167  A    between atoms: _431  and  _432
REMARK  168  A    between atoms: _435  and  _437
REMARK  169  A    between atoms: _437  and  _438
REMARK  170  A    between atoms: _437  and  _440
REMARK  171  A    between atoms: _440  and  _441
REMARK  172  A    between atoms: _446  and  _448
REMARK  173  A    between atoms: _448  and  _449
REMARK  174  A    between atoms: _448  and  _451
REMARK  175  A    between atoms: _451  and  _452
REMARK  176  A    between atoms: _452  and  _453
REMARK  177  A    between atoms: _453  and  _454
REMARK  178  A    between atoms: _454  and  _455
REMARK  179  A    between atoms: _459  and  _461
REMARK  180  A    between atoms: _461  and  _462
REMARK  181  A    between atoms: _461  and  _464
REMARK  182  A    between atoms: _464  and  _465
REMARK  183  A    between atoms: _470  and  _472
REMARK  184  A    between atoms: _472  and  _473
REMARK  185  A    between atoms: _475  and  _477
REMARK  186  A    between atoms: _477  and  _478
REMARK  187  A    between atoms: _477  and  _480
REMARK  188  A    between atoms: _480  and  _481
REMARK  189  A    between atoms: _481  and  _482
REMARK  190  A    between atoms: _482  and  _483
REMARK  191  A    between atoms: _483  and  _484
REMARK  192  A    between atoms: _488  and  _490
REMARK  193  A    between atoms: _490  and  _491
REMARK  194  A    between atoms: _490  and  _493
REMARK  195  A    between atoms: _493  and  _494
REMARK  196  A    between atoms: _494  and  _495
REMARK  197  A    between atoms: _495  and  _496
REMARK  198  A    between atoms: _505  and  _507
REMARK  199  A    between atoms: _507  and  _508
REMARK  200  A    between atoms: _507  and  _510
REMARK  201  A    between atoms: _510  and  _511
REMARK  202  A    between atoms: _516  and  _517
REMARK  203  A    between atoms: _519  and  _521
REMARK  204  A    between atoms: _521  and  _522
REMARK  205  A    between atoms: _521  and  _524
REMARK  206  A    between atoms: _524  and  _525
REMARK  207  A    between atoms: _525  and  _526
REMARK  208  A    between atoms: _526  and  _527
REMARK  209  A    between atoms: _527  and  _528
REMARK  210  A    between atoms: _532  and  _534
REMARK  211  A    between atoms: _534  and  _535
REMARK  212  A    between atoms: _534  and  _537
REMARK  213  A    between atoms: _537  and  _538
REMARK  214  A    between atoms: _540  and  _542
REMARK  215  A    between atoms: _542  and  _543
REMARK  216  A    between atoms: _542  and  _545
REMARK  217  A    between atoms: _545  and  _546
REMARK  218  A    between atoms: _549  and  _551
REMARK  219  A    between atoms: _551  and  _552
REMARK  220  A    between atoms: _551  and  _554
REMARK  221  A    between atoms: _554  and  _555
REMARK  222  A    between atoms: _555  and  _556
REMARK  223  A    between atoms: _559  and  _561
REMARK  224  A    between atoms: _561  and  _562
REMARK  225  A    between atoms: _565  and  _567
REMARK  226  A    between atoms: _567  and  _568
REMARK  227  A    between atoms: _567  and  _570
REMARK  228  A    between atoms: _570  and  _571
REMARK  229  A    between atoms: _573  and  _575
REMARK  230  A    between atoms: _575  and  _576
REMARK  231  A    between atoms: _578  and  _580
REMARK  232  A    between atoms: _580  and  _581
REMARK  233  A    between atoms: _580  and  _583
REMARK  234  A    between atoms: _583  and  _584
REMARK  235  A    between atoms: _587  and  _589
REMARK  236  A    between atoms: _589  and  _590
REMARK  237  A    between atoms: _592  and  _594
REMARK  238  A    between atoms: _594  and  _595
REMARK  239  A    between atoms: _594  and  _597
REMARK  240  A    between atoms: _597  and  _598
REMARK  241  A    between atoms: _603  and  _605
REMARK  242  A    between atoms: _605  and  _606
REMARK  243  A    between atoms: _605  and  _608
REMARK  244  A    between atoms: _608  and  _609
REMARK  245  A    between atoms: _609  and  _610
REMARK  246  A    between atoms: _617  and  _618
REMARK  247  A    between atoms: _618  and  _634
REMARK  248  A    between atoms: _619  and  _621
REMARK  249  A    between atoms: _621  and  _622
REMARK  250  A    between atoms: _622  and  _623
REMARK  251  A    between atoms: _627  and  _629
REMARK  252  A    between atoms: _629  and  _630
REMARK  253  A    between atoms: _629  and  _637
REMARK  254  A    between atoms: _630  and  _631
REMARK  255  A    between atoms: _631  and  _632
REMARK  256  A    between atoms: _632  and  _633
REMARK  257  A    between atoms: _633  and  _634
REMARK  258  A    between atoms: _639  and  _641
REMARK  259  A    between atoms: _641  and  _642
REMARK  260  A    between atoms: _641  and  _644
REMARK  261  A    between atoms: _644  and  _645
REMARK  262  A    between atoms: _648  and  _650
REMARK  263  A    between atoms: _650  and  _651
REMARK  264  A    between atoms: _653  and  _655
REMARK  265  A    between atoms: _655  and  _656
REMARK  266  A    between atoms: _659  and  _661
REMARK  267  A    between atoms: _661  and  _662
REMARK  268  A    between atoms: _661  and  _664
REMARK  269  A    between atoms: _664  and  _665
REMARK  270  A    between atoms: _670  and  _671
REMARK                            x       y       z     vdW  Elec       q    Type
REMARK                         _______ _______ _______ _____ _____    ______ ____
ROOT
ATOM      1  O   HOH     1      29.961  23.340  18.685  0.00  0.00    +0.000 OA
ENDROOT
TORSDOF 0
REMARK  Name = ../refined-set-2016/3g2k/3g2k_pocket.pdb
REMARK  270 active torsions:
REMARK  status: ('A' for Active; 'I' for Inactive)
REMARK    1  A    between atoms: _1  and  _3
REMARK    2  A    between atoms: _3  and  _4
REMARK    3  A    between atoms: _3  and  _6
REMARK    4  A    between atoms: _6  and  _7
REMARK    5  A    between atoms: _12  and  _13
REMARK    6  A    between atoms: _15  and  _17
REMARK    7  A    between atoms: _17  and  _18
REMARK    8  A    between atoms: _17  and  _20
REMARK    9  A    between atoms: _20  and  _21
REMARK   10  A    between atoms: _24  and  _26
REMARK   11  A    between atoms: _26  and  _27
REMARK   12  A    between atoms: _26  and  _29
REMARK   13  A    between atoms: _29  and  _30
REMARK   14  A    between atoms: _30  and  _31
REMARK   15  A    between atoms: _34  and  _36
REMARK   16  A    between atoms: _36  and  _37
REMARK   17  A    between atoms: _36  and  _39
REMARK   18  A    between atoms: _39  and  _40
REMARK   19  A    between atoms: _45  and  _47
REMARK   20  A    between atoms: _47  and  _48
REMARK   21  A    between atoms: _50  and  _52
REMARK   22  A    between atoms: _52  and  _53
REMARK   23  A    between atoms: _55  and  _57
REMARK   24  A    between atoms: _57  and  _58
REMARK   25  A    between atoms: _57  and  _60
REMARK   26  A    between atoms: _60  and  _61
REMARK   27  A    between atoms: _64  and  _66
REMARK   28  A    between atoms: _66  and  _67
REMARK   29  A    between atoms: _69  and  _71
REMARK   30  A    between atoms: _71  and  _72
REMARK   31  A    between atoms: _71  and  _74
REMARK   32  A    between atoms: _74  and  _75
REMARK   33  A    between atoms: _75  and  _76
REMARK   34  A    between atoms: _76  and  _77
REMARK   35  A    between atoms: _86  and  _88
REMARK   36  A    between atoms: _88  and  _89
REMARK   37  A    between atoms: _88  and  _91
REMARK   38  A    between atoms: _91  and  _92
REMARK   39  A    between atoms: _95  and  _97
REMARK   40  A    between atoms: _97  and  _98
REMARK   41  A    between atoms: _101  and  _103
REMARK   42  A    between atoms: _103  and  _104
REMARK   43  A    between atoms: _103  and  _106
REMARK   44  A    between atoms: _106  and  _107
REMARK   45  A    between atoms: _113  and  _115
REMARK   46  A    between atoms: _115  and  _116
REMARK   47  A    between atoms: _115  and  _118
REMARK   48  A    between atoms: _118  and  _119
REMARK   49  A    between atoms: _124  and  _125
REMARK   50  A    between atoms: _128  and  _129
REMARK   51  A    between atoms: _134  and  _136
REMARK   52  A    between atoms: _136  and  _137
REMARK   53  A    between atoms: _136  and  _139
REMARK   54  A    between atoms: _139  and  _140
REMARK   55  A    between atoms: _145  and  _147
REMARK   56  A    between atoms: _147  and  _148
REMARK   57  A    between atoms: _147  and  _150
REMARK   58  A    between atoms: _150  and  _151
REMARK   59  A    between atoms: _154  and  _156
REMARK   60  A    between atoms: _156  and  _157
REMARK   61  A    between atoms: _156  and  _159
REMARK   62  A    between atoms: _159  and  _160
REMARK   63  A    between atoms: _165  and  _167
REMARK   64  A    between atoms: _167  and  _168
REMARK   65  A    between atoms: _167  and  _170
REMARK   66  A    between atoms: _170  and  _171
REMARK   67  A    between atoms: _177  and  _179
REMARK   68  A    between atoms: _179  and  _180
REMARK   69  A    between atoms: _179  and  _182
REMARK   70  A    between atoms: _182  and  _183
REMARK   71  A    between atoms: _189  and  _191
REMARK   72  A    between atoms: _191  and  _192
REMARK   73  A    between atoms: _191  and  _194
REMARK   74  A    between atoms: _194  and  _195
REMARK   75  A    between atoms: _195  and  _196
REMARK   76  A    between atoms: _199  and  _201
REMARK   77  A    between atoms: _201  and  _202
REMARK   78  A    between atoms: _201  and  _204
REMARK   79  A    between atoms: _204  and  _205
REMARK   80  A    between atoms: _205  and  _206
REMARK   81  A    between atoms: _206  and  _207
REMARK   82  A    between atoms: _216  and  _218
REMARK   83  A    between atoms: _218  and  _219
REMARK   84  A    between atoms: _218  and  _221
REMARK   85  A    between atoms: _221  and  _222
REMARK   86  A    between atoms: _222  and  _223
REMARK   87  A    between atoms: _226  and  _228
REMARK   88  A    between atoms: _228  and  _229
REMARK   89  A    between atoms: _228  and  _231
REMARK   90  A    between atoms: _231  and  _232
REMARK   91  A    between atoms: _237  and  _239
REMARK   92  A    between atoms: _239  and  _240
REMARK   93  A    between atoms: _239  and  _242
REMARK   94  A    between atoms: _242  and  _243
REMARK   95  A    between atoms: _246  and  _248
REMARK   96  A    between atoms: _248  and  _249
REMARK   97  A    between atoms: _248  and  _251
REMARK   98  A    between atoms: _251  and  _252
REMARK   99  A    between atoms: _255  and  _257
REMARK  100  A    between atoms: _257  and  _258
REMARK  101  A    between atoms: _257  and  _260
REMARK  102  A    between atoms: _260  and  _261
REMARK  103  A    between atoms: _266  and  _268
REMARK  104  A    between atoms: _268  and  _269
REMARK  105  A    between atoms: _268  and  _271
REMARK  106  A    between atoms: _271  and  _272
REMARK  107  A    between atoms: _277  and  _278
REMARK  108  A    between atoms: _280  and  _282
REMARK  109  A    between atoms: _282  and  _283
REMARK  110  A    between atoms: _282  and  _285
REMARK  111  A    between atoms: _285  and  _286
REMARK  112  A    between atoms: _289  and  _291
REMARK  113  A    between atoms: _291  and  _292
REMARK  114  A    between atoms: _291  and  _294
REMARK  115  A    between atoms: _294  and  _295
REMARK  116  A    between atoms: _300  and  _302
REMARK  117  A    between atoms: _302  and  _303
REMARK  118  A    between atoms: _302  and  _305
REMARK  119  A    between atoms: _305  and  _306
REMARK  120  A    between atoms: _311  and  _313
REMARK  121  A    between atoms: _313  and  _314
REMARK  122  A    between atoms: _313  and  _316
REMARK  123  A    between atoms: _316  and  _317
REMARK  124  A    between atoms: _320  and  _322
REMARK  125  A    between atoms: _322  and  _323
REMARK  126  A    between atoms: _322  and  _325
REMARK  127  A    between atoms: _328  and  _330
REMARK  128  A    between atoms: _330  and  _331
REMARK  129  A    between atoms: _330  and  _333
REMARK  130  A    between atoms: _333  and  _334
REMARK  131  A    between atoms: _337  and  _339
REMARK  132  A    between atoms: _339  and  _340
REMARK  133  A    between atoms: _339  and  _342
REMARK  134  A    between atoms: _342  and  _343
REMARK  135  A    between atoms: _343  and  _344
REMARK  136  A    between atoms: _347  and  _349
REMARK  137  A    between atoms: _349  and  _350
REMARK  138  A    between atoms: _353  and  _355
REMARK  139  A    between atoms: _355  and  _356
REMARK  140  A    between atoms: _355  and  _358
REMARK  141  A    between atoms: _358  and  _359
REMARK  142  A    between atoms: _362  and  _364
REMARK  143  A    between atoms: _364  and  _365
REMARK  144  A    between atoms: _364  and  _367
REMARK  145  A    between atoms: _367  and  _368
REMARK  146  A    between atoms: _368  and  _369
REMARK  147  A    between atoms: _372  and  _374
REMARK  148  A    between atoms: _374  and  _375
REMARK  149  A    between atoms: _374  and  _377
REMARK  150  A    between atoms: _377  and  _378
REMARK  151  A    between atoms: _378  and  _379
REMARK  152  A    between atoms: _379  and  _380
REMARK  153  A    between atoms: _389  and  _391
REMARK  154  A    between atoms: _391  and  _392
REMARK  155  A    between atoms: _391  and  _394
REMARK  156  A    between atoms: _394  and  _395
REMARK  157  A    between atoms: _405  and  _407
REMARK  158  A    between atoms: _407  and  _408
REMARK  159  A    between atoms: _407  and  _410
REMARK  160  A    between atoms: _410  and  _411
REMARK  161  A    between atoms: _416  and  _418
REMARK  162  A    between atoms: _418  and  _419
REMARK  163  A    between atoms: _421  and  _423
REMARK  164  A    between atoms: _423  and  _424
REMARK  165  A    between atoms: _423  and  _426
REMARK  166  A    between atoms: _429  and  _431
REMARK  167  A    between atoms: _431  and  _432
REMARK  168  A    between atoms: _435  and  _437
REMARK  169  A    between atoms: _437  and  _438
REMARK  170  A    between atoms: _437  and  _440
REMARK  171  A    between atoms: _440  and  _441
REMARK  172  A    between atoms: _446  and  _448
REMARK  173  A    between atoms: _448  and  _449
REMARK  174  A    between atoms: _448  and  _451
REMARK  175  A    between atoms: _451  and  _452
REMARK  176  A    between atoms: _452  and  _453
REMARK  177  A    between atoms: _453  and  _454
REMARK  178  A    between atoms: _454  and  _455
REMARK  179  A    between atoms: _459  and  _461
REMARK  180  A    between atoms: _461  and  _462
REMARK  181  A    between atoms: _461  and  _464
REMARK  182  A    between atoms: _464  and  _465
REMARK  183  A    between atoms: _470  and  _472
REMARK  184  A    between atoms: _472  and  _473
REMARK  185  A    between atoms: _475  and  _477
REMARK  186  A    between atoms: _477  and  _478
REMARK  187  A    between atoms: _477  and  _480
REMARK  188  A    between atoms: _480  and  _481
REMARK  189  A    between atoms: _481  and  _482
REMARK  190  A    between atoms: _482  and  _483
REMARK  191  A    between atoms: _483  and  _484
REMARK  192  A    between atoms: _488  and  _490
REMARK  193  A    between atoms: _490  and  _491
REMARK  194  A    between atoms: _490  and  _493
REMARK  195  A    between atoms: _493  and  _494
REMARK  196  A    between atoms: _494  and  _495
REMARK  197  A    between atoms: _495  and  _496
REMARK  198  A    between atoms: _505  and  _507
REMARK  199  A    between atoms: _507  and  _508
REMARK  200  A    between atoms: _507  and  _510
REMARK  201  A    between atoms: _510  and  _511
REMARK  202  A    between atoms: _516  and  _517
REMARK  203  A    between atoms: _519  and  _521
REMARK  204  A    between atoms: _521  and  _522
REMARK  205  A    between atoms: _521  and  _524
REMARK  206  A    between atoms: _524  and  _525
REMARK  207  A    between atoms: _525  and  _526
REMARK  208  A    between atoms: _526  and  _527
REMARK  209  A    between atoms: _527  and  _528
REMARK  210  A    between atoms: _532  and  _534
REMARK  211  A    between atoms: _534  and  _535
REMARK  212  A    between atoms: _534  and  _537
REMARK  213  A    between atoms: _537  and  _538
REMARK  214  A    between atoms: _540  and  _542
REMARK  215  A    between atoms: _542  and  _543
REMARK  216  A    between atoms: _542  and  _545
REMARK  217  A    between atoms: _545  and  _546
REMARK  218  A    between atoms: _549  and  _551
REMARK  219  A    between atoms: _551  and  _552
REMARK  220  A    between atoms: _551  and  _554
REMARK  221  A    between atoms: _554  and  _555
REMARK  222  A    between atoms: _555  and  _556
REMARK  223  A    between atoms: _559  and  _561
REMARK  224  A    between atoms: _561  and  _562
REMARK  225  A    between atoms: _565  and  _567
REMARK  226  A    between atoms: _567  and  _568
REMARK  227  A    between atoms: _567  and  _570
REMARK  228  A    between atoms: _570  and  _571
REMARK  229  A    between atoms: _573  and  _575
REMARK  230  A    between atoms: _575  and  _576
REMARK  231  A    between atoms: _578  and  _580
REMARK  232  A    between atoms: _580  and  _581
REMARK  233  A    between atoms: _580  and  _583
REMARK  234  A    between atoms: _583  and  _584
REMARK  235  A    between atoms: _587  and  _589
REMARK  236  A    between atoms: _589  and  _590
REMARK  237  A    between atoms: _592  and  _594
REMARK  238  A    between atoms: _594  and  _595
REMARK  239  A    between atoms: _594  and  _597
REMARK  240  A    between atoms: _597  and  _598
REMARK  241  A    between atoms: _603  and  _605
REMARK  242  A    between atoms: _605  and  _606
REMARK  243  A    between atoms: _605  and  _608
REMARK  244  A    between atoms: _608  and  _609
REMARK  245  A    between atoms: _609  and  _610
REMARK  246  A    between atoms: _617  and  _618
REMARK  247  A    between atoms: _618  and  _634
REMARK  248  A    between atoms: _619  and  _621
REMARK  249  A    between atoms: _621  and  _622
REMARK  250  A    between atoms: _622  and  _623
REMARK  251  A    between atoms: _627  and  _629
REMARK  252  A    between atoms: _629  and  _630
REMARK  253  A    between atoms: _629  and  _637
REMARK  254  A    between atoms: _630  and  _631
REMARK  255  A    between atoms: _631  and  _632
REMARK  256  A    between atoms: _632  and  _633
REMARK  257  A    between atoms: _633  and  _634
REMARK  258  A    between atoms: _639  and  _641
REMARK  259  A    between atoms: _641  and  _642
REMARK  260  A    between atoms: _641  and  _644
REMARK  261  A    between atoms: _644  and  _645
REMARK  262  A    between atoms: _648  and  _650
REMARK  263  A    between atoms: _650  and  _651
REMARK  264  A    between atoms: _653  and  _655
REMARK  265  A    between atoms: _655  and  _656
REMARK  266  A    between atoms: _659  and  _661
REMARK  267  A    between atoms: _661  and  _662
REMARK  268  A    between atoms: _661  and  _664
REMARK  269  A    between atoms: _664  and  _665
REMARK  270  A    between atoms: _670  and  _671
REMARK                            x       y       z     vdW  Elec       q    Type
REMARK                         _______ _______ _______ _____ _____    ______ ____
ROOT
ATOM      1  O   HOH     1      29.650  26.141  18.373  0.00  0.00    +0.000 OA
ENDROOT
TORSDOF 0
REMARK  Name = ../refined-set-2016/3g2k/3g2k_pocket.pdb
REMARK  270 active torsions:
REMARK  status: ('A' for Active; 'I' for Inactive)
REMARK    1  A    between atoms: _1  and  _3
REMARK    2  A    between atoms: _3  and  _4
REMARK    3  A    between atoms: _3  and  _6
REMARK    4  A    between atoms: _6  and  _7
REMARK    5  A    between atoms: _12  and  _13
REMARK    6  A    between atoms: _15  and  _17
REMARK    7  A    between atoms: _17  and  _18
REMARK    8  A    between atoms: _17  and  _20
REMARK    9  A    between atoms: _20  and  _21
REMARK   10  A    between atoms: _24  and  _26
REMARK   11  A    between atoms: _26  and  _27
REMARK   12  A    between atoms: _26  and  _29
REMARK   13  A    between atoms: _29  and  _30
REMARK   14  A    between atoms: _30  and  _31
REMARK   15  A    between atoms: _34  and  _36
REMARK   16  A    between atoms: _36  and  _37
REMARK   17  A    between atoms: _36  and  _39
REMARK   18  A    between atoms: _39  and  _40
REMARK   19  A    between atoms: _45  and  _47
REMARK   20  A    between atoms: _47  and  _48
REMARK   21  A    between atoms: _50  and  _52
REMARK   22  A    between atoms: _52  and  _53
REMARK   23  A    between atoms: _55  and  _57
REMARK   24  A    between atoms: _57  and  _58
REMARK   25  A    between atoms: _57  and  _60
REMARK   26  A    between atoms: _60  and  _61
REMARK   27  A    between atoms: _64  and  _66
REMARK   28  A    between atoms: _66  and  _67
REMARK   29  A    between atoms: _69  and  _71
REMARK   30  A    between atoms: _71  and  _72
REMARK   31  A    between atoms: _71  and  _74
REMARK   32  A    between atoms: _74  and  _75
REMARK   33  A    between atoms: _75  and  _76
REMARK   34  A    between atoms: _76  and  _77
REMARK   35  A    between atoms: _86  and  _88
REMARK   36  A    between atoms: _88  and  _89
REMARK   37  A    between atoms: _88  and  _91
REMARK   38  A    between atoms: _91  and  _92
REMARK   39  A    between atoms: _95  and  _97
REMARK   40  A    between atoms: _97  and  _98
REMARK   41  A    between atoms: _101  and  _103
REMARK   42  A    between atoms: _103  and  _104
REMARK   43  A    between atoms: _103  and  _106
REMARK   44  A    between atoms: _106  and  _107
REMARK   45  A    between atoms: _113  and  _115
REMARK   46  A    between atoms: _115  and  _116
REMARK   47  A    between atoms: _115  and  _118
REMARK   48  A    between atoms: _118  and  _119
REMARK   49  A    between atoms: _124  and  _125
REMARK   50  A    between atoms: _128  and  _129
REMARK   51  A    between atoms: _134  and  _136
REMARK   52  A    between atoms: _136  and  _137
REMARK   53  A    between atoms: _136  and  _139
REMARK   54  A    between atoms: _139  and  _140
REMARK   55  A    between atoms: _145  and  _147
REMARK   56  A    between atoms: _147  and  _148
REMARK   57  A    between atoms: _147  and  _150
REMARK   58  A    between atoms: _150  and  _151
REMARK   59  A    between atoms: _154  and  _156
REMARK   60  A    between atoms: _156  and  _157
REMARK   61  A    between atoms: _156  and  _159
REMARK   62  A    between atoms: _159  and  _160
REMARK   63  A    between atoms: _165  and  _167
REMARK   64  A    between atoms: _167  and  _168
REMARK   65  A    between atoms: _167  and  _170
REMARK   66  A    between atoms: _170  and  _171
REMARK   67  A    between atoms: _177  and  _179
REMARK   68  A    between atoms: _179  and  _180
REMARK   69  A    between atoms: _179  and  _182
REMARK   70  A    between atoms: _182  and  _183
REMARK   71  A    between atoms: _189  and  _191
REMARK   72  A    between atoms: _191  and  _192
REMARK   73  A    between atoms: _191  and  _194
REMARK   74  A    between atoms: _194  and  _195
REMARK   75  A    between atoms: _195  and  _196
REMARK   76  A    between atoms: _199  and  _201
REMARK   77  A    between atoms: _201  and  _202
REMARK   78  A    between atoms: _201  and  _204
REMARK   79  A    between atoms: _204  and  _205
REMARK   80  A    between atoms: _205  and  _206
REMARK   81  A    between atoms: _206  and  _207
REMARK   82  A    between atoms: _216  and  _218
REMARK   83  A    between atoms: _218  and  _219
REMARK   84  A    between atoms: _218  and  _221
REMARK   85  A    between atoms: _221  and  _222
REMARK   86  A    between atoms: _222  and  _223
REMARK   87  A    between atoms: _226  and  _228
REMARK   88  A    between atoms: _228  and  _229
REMARK   89  A    between atoms: _228  and  _231
REMARK   90  A    between atoms: _231  and  _232
REMARK   91  A    between atoms: _237  and  _239
REMARK   92  A    between atoms: _239  and  _240
REMARK   93  A    between atoms: _239  and  _242
REMARK   94  A    between atoms: _242  and  _243
REMARK   95  A    between atoms: _246  and  _248
REMARK   96  A    between atoms: _248  and  _249
REMARK   97  A    between atoms: _248  and  _251
REMARK   98  A    between atoms: _251  and  _252
REMARK   99  A    between atoms: _255  and  _257
REMARK  100  A    between atoms: _257  and  _258
REMARK  101  A    between atoms: _257  and  _260
REMARK  102  A    between atoms: _260  and  _261
REMARK  103  A    between atoms: _266  and  _268
REMARK  104  A    between atoms: _268  and  _269
REMARK  105  A    between atoms: _268  and  _271
REMARK  106  A    between atoms: _271  and  _272
REMARK  107  A    between atoms: _277  and  _278
REMARK  108  A    between atoms: _280  and  _282
REMARK  109  A    between atoms: _282  and  _283
REMARK  110  A    between atoms: _282  and  _285
REMARK  111  A    between atoms: _285  and  _286
REMARK  112  A    between atoms: _289  and  _291
REMARK  113  A    between atoms: _291  and  _292
REMARK  114  A    between atoms: _291  and  _294
REMARK  115  A    between atoms: _294  and  _295
REMARK  116  A    between atoms: _300  and  _302
REMARK  117  A    between atoms: _302  and  _303
REMARK  118  A    between atoms: _302  and  _305
REMARK  119  A    between atoms: _305  and  _306
REMARK  120  A    between atoms: _311  and  _313
REMARK  121  A    between atoms: _313  and  _314
REMARK  122  A    between atoms: _313  and  _316
REMARK  123  A    between atoms: _316  and  _317
REMARK  124  A    between atoms: _320  and  _322
REMARK  125  A    between atoms: _322  and  _323
REMARK  126  A    between atoms: _322  and  _325
REMARK  127  A    between atoms: _328  and  _330
REMARK  128  A    between atoms: _330  and  _331
REMARK  129  A    between atoms: _330  and  _333
REMARK  130  A    between atoms: _333  and  _334
REMARK  131  A    between atoms: _337  and  _339
REMARK  132  A    between atoms: _339  and  _340
REMARK  133  A    between atoms: _339  and  _342
REMARK  134  A    between atoms: _342  and  _343
REMARK  135  A    between atoms: _343  and  _344
REMARK  136  A    between atoms: _347  and  _349
REMARK  137  A    between atoms: _349  and  _350
REMARK  138  A    between atoms: _353  and  _355
REMARK  139  A    between atoms: _355  and  _356
REMARK  140  A    between atoms: _355  and  _358
REMARK  141  A    between atoms: _358  and  _359
REMARK  142  A    between atoms: _362  and  _364
REMARK  143  A    between atoms: _364  and  _365
REMARK  144  A    between atoms: _364  and  _367
REMARK  145  A    between atoms: _367  and  _368
REMARK  146  A    between atoms: _368  and  _369
REMARK  147  A    between atoms: _372  and  _374
REMARK  148  A    between atoms: _374  and  _375
REMARK  149  A    between atoms: _374  and  _377
REMARK  150  A    between atoms: _377  and  _378
REMARK  151  A    between atoms: _378  and  _379
REMARK  152  A    between atoms: _379  and  _380
REMARK  153  A    between atoms: _389  and  _391
REMARK  154  A    between atoms: _391  and  _392
REMARK  155  A    between atoms: _391  and  _394
REMARK  156  A    between atoms: _394  and  _395
REMARK  157  A    between atoms: _405  and  _407
REMARK  158  A    between atoms: _407  and  _408
REMARK  159  A    between atoms: _407  and  _410
REMARK  160  A    between atoms: _410  and  _411
REMARK  161  A    between atoms: _416  and  _418
REMARK  162  A    between atoms: _418  and  _419
REMARK  163  A    between atoms: _421  and  _423
REMARK  164  A    between atoms: _423  and  _424
REMARK  165  A    between atoms: _423  and  _426
REMARK  166  A    between atoms: _429  and  _431
REMARK  167  A    between atoms: _431  and  _432
REMARK  168  A    between atoms: _435  and  _437
REMARK  169  A    between atoms: _437  and  _438
REMARK  170  A    between atoms: _437  and  _440
REMARK  171  A    between atoms: _440  and  _441
REMARK  172  A    between atoms: _446  and  _448
REMARK  173  A    between atoms: _448  and  _449
REMARK  174  A    between atoms: _448  and  _451
REMARK  175  A    between atoms: _451  and  _452
REMARK  176  A    between atoms: _452  and  _453
REMARK  177  A    between atoms: _453  and  _454
REMARK  178  A    between atoms: _454  and  _455
REMARK  179  A    between atoms: _459  and  _461
REMARK  180  A    between atoms: _461  and  _462
REMARK  181  A    between atoms: _461  and  _464
REMARK  182  A    between atoms: _464  and  _465
REMARK  183  A    between atoms: _470  and  _472
REMARK  184  A    between atoms: _472  and  _473
REMARK  185  A    between atoms: _475  and  _477
REMARK  186  A    between atoms: _477  and  _478
REMARK  187  A    between atoms: _477  and  _480
REMARK  188  A    between atoms: _480  and  _481
REMARK  189  A    between atoms: _481  and  _482
REMARK  190  A    between atoms: _482  and  _483
REMARK  191  A    between atoms: _483  and  _484
REMARK  192  A    between atoms: _488  and  _490
REMARK  193  A    between atoms: _490  and  _491
REMARK  194  A    between atoms: _490  and  _493
REMARK  195  A    between atoms: _493  and  _494
REMARK  196  A    between atoms: _494  and  _495
REMARK  197  A    between atoms: _495  and  _496
REMARK  198  A    between atoms: _505  and  _507
REMARK  199  A    between atoms: _507  and  _508
REMARK  200  A    between atoms: _507  and  _510
REMARK  201  A    between atoms: _510  and  _511
REMARK  202  A    between atoms: _516  and  _517
REMARK  203  A    between atoms: _519  and  _521
REMARK  204  A    between atoms: _521  and  _522
REMARK  205  A    between atoms: _521  and  _524
REMARK  206  A    between atoms: _524  and  _525
REMARK  207  A    between atoms: _525  and  _526
REMARK  208  A    between atoms: _526  and  _527
REMARK  209  A    between atoms: _527  and  _528
REMARK  210  A    between atoms: _532  and  _534
REMARK  211  A    between atoms: _534  and  _535
REMARK  212  A    between atoms: _534  and  _537
REMARK  213  A    between atoms: _537  and  _538
REMARK  214  A    between atoms: _540  and  _542
REMARK  215  A    between atoms: _542  and  _543
REMARK  216  A    between atoms: _542  and  _545
REMARK  217  A    between atoms: _545  and  _546
REMARK  218  A    between atoms: _549  and  _551
REMARK  219  A    between atoms: _551  and  _552
REMARK  220  A    between atoms: _551  and  _554
REMARK  221  A    between atoms: _554  and  _555
REMARK  222  A    between atoms: _555  and  _556
REMARK  223  A    between atoms: _559  and  _561
REMARK  224  A    between atoms: _561  and  _562
REMARK  225  A    between atoms: _565  and  _567
REMARK  226  A    between atoms: _567  and  _568
REMARK  227  A    between atoms: _567  and  _570
REMARK  228  A    between atoms: _570  and  _571
REMARK  229  A    between atoms: _573  and  _575
REMARK  230  A    between atoms: _575  and  _576
REMARK  231  A    between atoms: _578  and  _580
REMARK  232  A    between atoms: _580  and  _581
REMARK  233  A    between atoms: _580  and  _583
REMARK  234  A    between atoms: _583  and  _584
REMARK  235  A    between atoms: _587  and  _589
REMARK  236  A    between atoms: _589  and  _590
REMARK  237  A    between atoms: _592  and  _594
REMARK  238  A    between atoms: _594  and  _595
REMARK  239  A    between atoms: _594  and  _597
REMARK  240  A    between atoms: _597  and  _598
REMARK  241  A    between atoms: _603  and  _605
REMARK  242  A    between atoms: _605  and  _606
REMARK  243  A    between atoms: _605  and  _608
REMARK  244  A    between atoms: _608  and  _609
REMARK  245  A    between atoms: _609  and  _610
REMARK  246  A    between atoms: _617  and  _618
REMARK  247  A    between atoms: _618  and  _634
REMARK  248  A    between atoms: _619  and  _621
REMARK  249  A    between atoms: _621  and  _622
REMARK  250  A    between atoms: _622  and  _623
REMARK  251  A    between atoms: _627  and  _629
REMARK  252  A    between atoms: _629  and  _630
REMARK  253  A    between atoms: _629  and  _637
REMARK  254  A    between atoms: _630  and  _631
REMARK  255  A    between atoms: _631  and  _632
REMARK  256  A    between atoms: _632  and  _633
REMARK  257  A    between atoms: _633  and  _634
REMARK  258  A    between atoms: _639  and  _641
REMARK  259  A    between atoms: _641  and  _642
REMARK  260  A    between atoms: _641  and  _644
REMARK  261  A    between atoms: _644  and  _645
REMARK  262  A    between atoms: _648  and  _650
REMARK  263  A    between atoms: _650  and  _651
REMARK  264  A    between atoms: _653  and  _655
REMARK  265  A    between atoms: _655  and  _656
REMARK  266  A    between atoms: _659  and  _661
REMARK  267  A    between atoms: _661  and  _662
REMARK  268  A    between atoms: _661  and  _664
REMARK  269  A    between atoms: _664  and  _665
REMARK  270  A    between atoms: _670  and  _671
REMARK                            x       y       z     vdW  Elec       q    Type
REMARK                         _______ _______ _______ _____ _____    ______ ____
ROOT
ATOM      1  O   HOH     1      29.246  27.422  20.810  0.00  0.00    +0.000 OA
ENDROOT
TORSDOF 0
REMARK  Name = ../refined-set-2016/3g2k/3g2k_pocket.pdb
REMARK  270 active torsions:
REMARK  status: ('A' for Active; 'I' for Inactive)
REMARK    1  A    between atoms: _1  and  _3
REMARK    2  A    between atoms: _3  and  _4
REMARK    3  A    between atoms: _3  and  _6
REMARK    4  A    between atoms: _6  and  _7
REMARK    5  A    between atoms: _12  and  _13
REMARK    6  A    between atoms: _15  and  _17
REMARK    7  A    between atoms: _17  and  _18
REMARK    8  A    between atoms: _17  and  _20
REMARK    9  A    between atoms: _20  and  _21
REMARK   10  A    between atoms: _24  and  _26
REMARK   11  A    between atoms: _26  and  _27
REMARK   12  A    between atoms: _26  and  _29
REMARK   13  A    between atoms: _29  and  _30
REMARK   14  A    between atoms: _30  and  _31
REMARK   15  A    between atoms: _34  and  _36
REMARK   16  A    between atoms: _36  and  _37
REMARK   17  A    between atoms: _36  and  _39
REMARK   18  A    between atoms: _39  and  _40
REMARK   19  A    between atoms: _45  and  _47
REMARK   20  A    between atoms: _47  and  _48
REMARK   21  A    between atoms: _50  and  _52
REMARK   22  A    between atoms: _52  and  _53
REMARK   23  A    between atoms: _55  and  _57
REMARK   24  A    between atoms: _57  and  _58
REMARK   25  A    between atoms: _57  and  _60
REMARK   26  A    between atoms: _60  and  _61
REMARK   27  A    between atoms: _64  and  _66
REMARK   28  A    between atoms: _66  and  _67
REMARK   29  A    between atoms: _69  and  _71
REMARK   30  A    between atoms: _71  and  _72
REMARK   31  A    between atoms: _71  and  _74
REMARK   32  A    between atoms: _74  and  _75
REMARK   33  A    between atoms: _75  and  _76
REMARK   34  A    between atoms: _76  and  _77
REMARK   35  A    between atoms: _86  and  _88
REMARK   36  A    between atoms: _88  and  _89
REMARK   37  A    between atoms: _88  and  _91
REMARK   38  A    between atoms: _91  and  _92
REMARK   39  A    between atoms: _95  and  _97
REMARK   40  A    between atoms: _97  and  _98
REMARK   41  A    between atoms: _101  and  _103
REMARK   42  A    between atoms: _103  and  _104
REMARK   43  A    between atoms: _103  and  _106
REMARK   44  A    between atoms: _106  and  _107
REMARK   45  A    between atoms: _113  and  _115
REMARK   46  A    between atoms: _115  and  _116
REMARK   47  A    between atoms: _115  and  _118
REMARK   48  A    between atoms: _118  and  _119
REMARK   49  A    between atoms: _124  and  _125
REMARK   50  A    between atoms: _128  and  _129
REMARK   51  A    between atoms: _134  and  _136
REMARK   52  A    between atoms: _136  and  _137
REMARK   53  A    between atoms: _136  and  _139
REMARK   54  A    between atoms: _139  and  _140
REMARK   55  A    between atoms: _145  and  _147
REMARK   56  A    between atoms: _147  and  _148
REMARK   57  A    between atoms: _147  and  _150
REMARK   58  A    between atoms: _150  and  _151
REMARK   59  A    between atoms: _154  and  _156
REMARK   60  A    between atoms: _156  and  _157
REMARK   61  A    between atoms: _156  and  _159
REMARK   62  A    between atoms: _159  and  _160
REMARK   63  A    between atoms: _165  and  _167
REMARK   64  A    between atoms: _167  and  _168
REMARK   65  A    between atoms: _167  and  _170
REMARK   66  A    between atoms: _170  and  _171
REMARK   67  A    between atoms: _177  and  _179
REMARK   68  A    between atoms: _179  and  _180
REMARK   69  A    between atoms: _179  and  _182
REMARK   70  A    between atoms: _182  and  _183
REMARK   71  A    between atoms: _189  and  _191
REMARK   72  A    between atoms: _191  and  _192
REMARK   73  A    between atoms: _191  and  _194
REMARK   74  A    between atoms: _194  and  _195
REMARK   75  A    between atoms: _195  and  _196
REMARK   76  A    between atoms: _199  and  _201
REMARK   77  A    between atoms: _201  and  _202
REMARK   78  A    between atoms: _201  and  _204
REMARK   79  A    between atoms: _204  and  _205
REMARK   80  A    between atoms: _205  and  _206
REMARK   81  A    between atoms: _206  and  _207
REMARK   82  A    between atoms: _216  and  _218
REMARK   83  A    between atoms: _218  and  _219
REMARK   84  A    between atoms: _218  and  _221
REMARK   85  A    between atoms: _221  and  _222
REMARK   86  A    between atoms: _222  and  _223
REMARK   87  A    between atoms: _226  and  _228
REMARK   88  A    between atoms: _228  and  _229
REMARK   89  A    between atoms: _228  and  _231
REMARK   90  A    between atoms: _231  and  _232
REMARK   91  A    between atoms: _237  and  _239
REMARK   92  A    between atoms: _239  and  _240
REMARK   93  A    between atoms: _239  and  _242
REMARK   94  A    between atoms: _242  and  _243
REMARK   95  A    between atoms: _246  and  _248
REMARK   96  A    between atoms: _248  and  _249
REMARK   97  A    between atoms: _248  and  _251
REMARK   98  A    between atoms: _251  and  _252
REMARK   99  A    between atoms: _255  and  _257
REMARK  100  A    between atoms: _257  and  _258
REMARK  101  A    between atoms: _257  and  _260
REMARK  102  A    between atoms: _260  and  _261
REMARK  103  A    between atoms: _266  and  _268
REMARK  104  A    between atoms: _268  and  _269
REMARK  105  A    between atoms: _268  and  _271
REMARK  106  A    between atoms: _271  and  _272
REMARK  107  A    between atoms: _277  and  _278
REMARK  108  A    between atoms: _280  and  _282
REMARK  109  A    between atoms: _282  and  _283
REMARK  110  A    between atoms: _282  and  _285
REMARK  111  A    between atoms: _285  and  _286
REMARK  112  A    between atoms: _289  and  _291
REMARK  113  A    between atoms: _291  and  _292
REMARK  114  A    between atoms: _291  and  _294
REMARK  115  A    between atoms: _294  and  _295
REMARK  116  A    between atoms: _300  and  _302
REMARK  117  A    between atoms: _302  and  _303
REMARK  118  A    between atoms: _302  and  _305
REMARK  119  A    between atoms: _305  and  _306
REMARK  120  A    between atoms: _311  and  _313
REMARK  121  A    between atoms: _313  and  _314
REMARK  122  A    between atoms: _313  and  _316
REMARK  123  A    between atoms: _316  and  _317
REMARK  124  A    between atoms: _320  and  _322
REMARK  125  A    between atoms: _322  and  _323
REMARK  126  A    between atoms: _322  and  _325
REMARK  127  A    between atoms: _328  and  _330
REMARK  128  A    between atoms: _330  and  _331
REMARK  129  A    between atoms: _330  and  _333
REMARK  130  A    between atoms: _333  and  _334
REMARK  131  A    between atoms: _337  and  _339
REMARK  132  A    between atoms: _339  and  _340
REMARK  133  A    between atoms: _339  and  _342
REMARK  134  A    between atoms: _342  and  _343
REMARK  135  A    between atoms: _343  and  _344
REMARK  136  A    between atoms: _347  and  _349
REMARK  137  A    between atoms: _349  and  _350
REMARK  138  A    between atoms: _353  and  _355
REMARK  139  A    between atoms: _355  and  _356
REMARK  140  A    between atoms: _355  and  _358
REMARK  141  A    between atoms: _358  and  _359
REMARK  142  A    between atoms: _362  and  _364
REMARK  143  A    between atoms: _364  and  _365
REMARK  144  A    between atoms: _364  and  _367
REMARK  145  A    between atoms: _367  and  _368
REMARK  146  A    between atoms: _368  and  _369
REMARK  147  A    between atoms: _372  and  _374
REMARK  148  A    between atoms: _374  and  _375
REMARK  149  A    between atoms: _374  and  _377
REMARK  150  A    between atoms: _377  and  _378
REMARK  151  A    between atoms: _378  and  _379
REMARK  152  A    between atoms: _379  and  _380
REMARK  153  A    between atoms: _389  and  _391
REMARK  154  A    between atoms: _391  and  _392
REMARK  155  A    between atoms: _391  and  _394
REMARK  156  A    between atoms: _394  and  _395
REMARK  157  A    between atoms: _405  and  _407
REMARK  158  A    between atoms: _407  and  _408
REMARK  159  A    between atoms: _407  and  _410
REMARK  160  A    between atoms: _410  and  _411
REMARK  161  A    between atoms: _416  and  _418
REMARK  162  A    between atoms: _418  and  _419
REMARK  163  A    between atoms: _421  and  _423
REMARK  164  A    between atoms: _423  and  _424
REMARK  165  A    between atoms: _423  and  _426
REMARK  166  A    between atoms: _429  and  _431
REMARK  167  A    between atoms: _431  and  _432
REMARK  168  A    between atoms: _435  and  _437
REMARK  169  A    between atoms: _437  and  _438
REMARK  170  A    between atoms: _437  and  _440
REMARK  171  A    between atoms: _440  and  _441
REMARK  172  A    between atoms: _446  and  _448
REMARK  173  A    between atoms: _448  and  _449
REMARK  174  A    between atoms: _448  and  _451
REMARK  175  A    between atoms: _451  and  _452
REMARK  176  A    between atoms: _452  and  _453
REMARK  177  A    between atoms: _453  and  _454
REMARK  178  A    between atoms: _454  and  _455
REMARK  179  A    between atoms: _459  and  _461
REMARK  180  A    between atoms: _461  and  _462
REMARK  181  A    between atoms: _461  and  _464
REMARK  182  A    between atoms: _464  and  _465
REMARK  183  A    between atoms: _470  and  _472
REMARK  184  A    between atoms: _472  and  _473
REMARK  185  A    between atoms: _475  and  _477
REMARK  186  A    between atoms: _477  and  _478
REMARK  187  A    between atoms: _477  and  _480
REMARK  188  A    between atoms: _480  and  _481
REMARK  189  A    between atoms: _481  and  _482
REMARK  190  A    between atoms: _482  and  _483
REMARK  191  A    between atoms: _483  and  _484
REMARK  192  A    between atoms: _488  and  _490
REMARK  193  A    between atoms: _490  and  _491
REMARK  194  A    between atoms: _490  and  _493
REMARK  195  A    between atoms: _493  and  _494
REMARK  196  A    between atoms: _494  and  _495
REMARK  197  A    between atoms: _495  and  _496
REMARK  198  A    between atoms: _505  and  _507
REMARK  199  A    between atoms: _507  and  _508
REMARK  200  A    between atoms: _507  and  _510
REMARK  201  A    between atoms: _510  and  _511
REMARK  202  A    between atoms: _516  and  _517
REMARK  203  A    between atoms: _519  and  _521
REMARK  204  A    between atoms: _521  and  _522
REMARK  205  A    between atoms: _521  and  _524
REMARK  206  A    between atoms: _524  and  _525
REMARK  207  A    between atoms: _525  and  _526
REMARK  208  A    between atoms: _526  and  _527
REMARK  209  A    between atoms: _527  and  _528
REMARK  210  A    between atoms: _532  and  _534
REMARK  211  A    between atoms: _534  and  _535
REMARK  212  A    between atoms: _534  and  _537
REMARK  213  A    between atoms: _537  and  _538
REMARK  214  A    between atoms: _540  and  _542
REMARK  215  A    between atoms: _542  and  _543
REMARK  216  A    between atoms: _542  and  _545
REMARK  217  A    between atoms: _545  and  _546
REMARK  218  A    between atoms: _549  and  _551
REMARK  219  A    between atoms: _551  and  _552
REMARK  220  A    between atoms: _551  and  _554
REMARK  221  A    between atoms: _554  and  _555
REMARK  222  A    between atoms: _555  and  _556
REMARK  223  A    between atoms: _559  and  _561
REMARK  224  A    between atoms: _561  and  _562
REMARK  225  A    between atoms: _565  and  _567
REMARK  226  A    between atoms: _567  and  _568
REMARK  227  A    between atoms: _567  and  _570
REMARK  228  A    between atoms: _570  and  _571
REMARK  229  A    between atoms: _573  and  _575
REMARK  230  A    between atoms: _575  and  _576
REMARK  231  A    between atoms: _578  and  _580
REMARK  232  A    between atoms: _580  and  _581
REMARK  233  A    between atoms: _580  and  _583
REMARK  234  A    between atoms: _583  and  _584
REMARK  235  A    between atoms: _587  and  _589
REMARK  236  A    between atoms: _589  and  _590
REMARK  237  A    between atoms: _592  and  _594
REMARK  238  A    between atoms: _594  and  _595
REMARK  239  A    between atoms: _594  and  _597
REMARK  240  A    between atoms: _597  and  _598
REMARK  241  A    between atoms: _603  and  _605
REMARK  242  A    between atoms: _605  and  _606
REMARK  243  A    between atoms: _605  and  _608
REMARK  244  A    between atoms: _608  and  _609
REMARK  245  A    between atoms: _609  and  _610
REMARK  246  A    between atoms: _617  and  _618
REMARK  247  A    between atoms: _618  and  _634
REMARK  248  A    between atoms: _619  and  _621
REMARK  249  A    between atoms: _621  and  _622
REMARK  250  A    between atoms: _622  and  _623
REMARK  251  A    between atoms: _627  and  _629
REMARK  252  A    between atoms: _629  and  _630
REMARK  253  A    between atoms: _629  and  _637
REMARK  254  A    between atoms: _630  and  _631
REMARK  255  A    between atoms: _631  and  _632
REMARK  256  A    between atoms: _632  and  _633
REMARK  257  A    between atoms: _633  and  _634
REMARK  258  A    between atoms: _639  and  _641
REMARK  259  A    between atoms: _641  and  _642
REMARK  260  A    between atoms: _641  and  _644
REMARK  261  A    between atoms: _644  and  _645
REMARK  262  A    between atoms: _648  and  _650
REMARK  263  A    between atoms: _650  and  _651
REMARK  264  A    between atoms: _653  and  _655
REMARK  265  A    between atoms: _655  and  _656
REMARK  266  A    between atoms: _659  and  _661
REMARK  267  A    between atoms: _661  and  _662
REMARK  268  A    between atoms: _661  and  _664
REMARK  269  A    between atoms: _664  and  _665
REMARK  270  A    between atoms: _670  and  _671
REMARK                            x       y       z     vdW  Elec       q    Type
REMARK                         _______ _______ _______ _____ _____    ______ ____
ROOT
ATOM      1  O   HOH     1      41.214  26.304  37.797  0.00  0.00    +0.000 OA
ENDROOT
TORSDOF 0
REMARK  Name = ../refined-set-2016/3g2k/3g2k_pocket.pdb
REMARK  270 active torsions:
REMARK  status: ('A' for Active; 'I' for Inactive)
REMARK    1  A    between atoms: _1  and  _3
REMARK    2  A    between atoms: _3  and  _4
REMARK    3  A    between atoms: _3  and  _6
REMARK    4  A    between atoms: _6  and  _7
REMARK    5  A    between atoms: _12  and  _13
REMARK    6  A    between atoms: _15  and  _17
REMARK    7  A    between atoms: _17  and  _18
REMARK    8  A    between atoms: _17  and  _20
REMARK    9  A    between atoms: _20  and  _21
REMARK   10  A    between atoms: _24  and  _26
REMARK   11  A    between atoms: _26  and  _27
REMARK   12  A    between atoms: _26  and  _29
REMARK   13  A    between atoms: _29  and  _30
REMARK   14  A    between atoms: _30  and  _31
REMARK   15  A    between atoms: _34  and  _36
REMARK   16  A    between atoms: _36  and  _37
REMARK   17  A    between atoms: _36  and  _39
REMARK   18  A    between atoms: _39  and  _40
REMARK   19  A    between atoms: _45  and  _47
REMARK   20  A    between atoms: _47  and  _48
REMARK   21  A    between atoms: _50  and  _52
REMARK   22  A    between atoms: _52  and  _53
REMARK   23  A    between atoms: _55  and  _57
REMARK   24  A    between atoms: _57  and  _58
REMARK   25  A    between atoms: _57  and  _60
REMARK   26  A    between atoms: _60  and  _61
REMARK   27  A    between atoms: _64  and  _66
REMARK   28  A    between atoms: _66  and  _67
REMARK   29  A    between atoms: _69  and  _71
REMARK   30  A    between atoms: _71  and  _72
REMARK   31  A    between atoms: _71  and  _74
REMARK   32  A    between atoms: _74  and  _75
REMARK   33  A    between atoms: _75  and  _76
REMARK   34  A    between atoms: _76  and  _77
REMARK   35  A    between atoms: _86  and  _88
REMARK   36  A    between atoms: _88  and  _89
REMARK   37  A    between atoms: _88  and  _91
REMARK   38  A    between atoms: _91  and  _92
REMARK   39  A    between atoms: _95  and  _97
REMARK   40  A    between atoms: _97  and  _98
REMARK   41  A    between atoms: _101  and  _103
REMARK   42  A    between atoms: _103  and  _104
REMARK   43  A    between atoms: _103  and  _106
REMARK   44  A    between atoms: _106  and  _107
REMARK   45  A    between atoms: _113  and  _115
REMARK   46  A    between atoms: _115  and  _116
REMARK   47  A    between atoms: _115  and  _118
REMARK   48  A    between atoms: _118  and  _119
REMARK   49  A    between atoms: _124  and  _125
REMARK   50  A    between atoms: _128  and  _129
REMARK   51  A    between atoms: _134  and  _136
REMARK   52  A    between atoms: _136  and  _137
REMARK   53  A    between atoms: _136  and  _139
REMARK   54  A    between atoms: _139  and  _140
REMARK   55  A    between atoms: _145  and  _147
REMARK   56  A    between atoms: _147  and  _148
REMARK   57  A    between atoms: _147  and  _150
REMARK   58  A    between atoms: _150  and  _151
REMARK   59  A    between atoms: _154  and  _156
REMARK   60  A    between atoms: _156  and  _157
REMARK   61  A    between atoms: _156  and  _159
REMARK   62  A    between atoms: _159  and  _160
REMARK   63  A    between atoms: _165  and  _167
REMARK   64  A    between atoms: _167  and  _168
REMARK   65  A    between atoms: _167  and  _170
REMARK   66  A    between atoms: _170  and  _171
REMARK   67  A    between atoms: _177  and  _179
REMARK   68  A    between atoms: _179  and  _180
REMARK   69  A    between atoms: _179  and  _182
REMARK   70  A    between atoms: _182  and  _183
REMARK   71  A    between atoms: _189  and  _191
REMARK   72  A    between atoms: _191  and  _192
REMARK   73  A    between atoms: _191  and  _194
REMARK   74  A    between atoms: _194  and  _195
REMARK   75  A    between atoms: _195  and  _196
REMARK   76  A    between atoms: _199  and  _201
REMARK   77  A    between atoms: _201  and  _202
REMARK   78  A    between atoms: _201  and  _204
REMARK   79  A    between atoms: _204  and  _205
REMARK   80  A    between atoms: _205  and  _206
REMARK   81  A    between atoms: _206  and  _207
REMARK   82  A    between atoms: _216  and  _218
REMARK   83  A    between atoms: _218  and  _219
REMARK   84  A    between atoms: _218  and  _221
REMARK   85  A    between atoms: _221  and  _222
REMARK   86  A    between atoms: _222  and  _223
REMARK   87  A    between atoms: _226  and  _228
REMARK   88  A    between atoms: _228  and  _229
REMARK   89  A    between atoms: _228  and  _231
REMARK   90  A    between atoms: _231  and  _232
REMARK   91  A    between atoms: _237  and  _239
REMARK   92  A    between atoms: _239  and  _240
REMARK   93  A    between atoms: _239  and  _242
REMARK   94  A    between atoms: _242  and  _243
REMARK   95  A    between atoms: _246  and  _248
REMARK   96  A    between atoms: _248  and  _249
REMARK   97  A    between atoms: _248  and  _251
REMARK   98  A    between atoms: _251  and  _252
REMARK   99  A    between atoms: _255  and  _257
REMARK  100  A    between atoms: _257  and  _258
REMARK  101  A    between atoms: _257  and  _260
REMARK  102  A    between atoms: _260  and  _261
REMARK  103  A    between atoms: _266  and  _268
REMARK  104  A    between atoms: _268  and  _269
REMARK  105  A    between atoms: _268  and  _271
REMARK  106  A    between atoms: _271  and  _272
REMARK  107  A    between atoms: _277  and  _278
REMARK  108  A    between atoms: _280  and  _282
REMARK  109  A    between atoms: _282  and  _283
REMARK  110  A    between atoms: _282  and  _285
REMARK  111  A    between atoms: _285  and  _286
REMARK  112  A    between atoms: _289  and  _291
REMARK  113  A    between atoms: _291  and  _292
REMARK  114  A    between atoms: _291  and  _294
REMARK  115  A    between atoms: _294  and  _295
REMARK  116  A    between atoms: _300  and  _302
REMARK  117  A    between atoms: _302  and  _303
REMARK  118  A    between atoms: _302  and  _305
REMARK  119  A    between atoms: _305  and  _306
REMARK  120  A    between atoms: _311  and  _313
REMARK  121  A    between atoms: _313  and  _314
REMARK  122  A    between atoms: _313  and  _316
REMARK  123  A    between atoms: _316  and  _317
REMARK  124  A    between atoms: _320  and  _322
REMARK  125  A    between atoms: _322  and  _323
REMARK  126  A    between atoms: _322  and  _325
REMARK  127  A    between atoms: _328  and  _330
REMARK  128  A    between atoms: _330  and  _331
REMARK  129  A    between atoms: _330  and  _333
REMARK  130  A    between atoms: _333  and  _334
REMARK  131  A    between atoms: _337  and  _339
REMARK  132  A    between atoms: _339  and  _340
REMARK  133  A    between atoms: _339  and  _342
REMARK  134  A    between atoms: _342  and  _343
REMARK  135  A    between atoms: _343  and  _344
REMARK  136  A    between atoms: _347  and  _349
REMARK  137  A    between atoms: _349  and  _350
REMARK  138  A    between atoms: _353  and  _355
REMARK  139  A    between atoms: _355  and  _356
REMARK  140  A    between atoms: _355  and  _358
REMARK  141  A    between atoms: _358  and  _359
REMARK  142  A    between atoms: _362  and  _364
REMARK  143  A    between atoms: _364  and  _365
REMARK  144  A    between atoms: _364  and  _367
REMARK  145  A    between atoms: _367  and  _368
REMARK  146  A    between atoms: _368  and  _369
REMARK  147  A    between atoms: _372  and  _374
REMARK  148  A    between atoms: _374  and  _375
REMARK  149  A    between atoms: _374  and  _377
REMARK  150  A    between atoms: _377  and  _378
REMARK  151  A    between atoms: _378  and  _379
REMARK  152  A    between atoms: _379  and  _380
REMARK  153  A    between atoms: _389  and  _391
REMARK  154  A    between atoms: _391  and  _392
REMARK  155  A    between atoms: _391  and  _394
REMARK  156  A    between atoms: _394  and  _395
REMARK  157  A    between atoms: _405  and  _407
REMARK  158  A    between atoms: _407  and  _408
REMARK  159  A    between atoms: _407  and  _410
REMARK  160  A    between atoms: _410  and  _411
REMARK  161  A    between atoms: _416  and  _418
REMARK  162  A    between atoms: _418  and  _419
REMARK  163  A    between atoms: _421  and  _423
REMARK  164  A    between atoms: _423  and  _424
REMARK  165  A    between atoms: _423  and  _426
REMARK  166  A    between atoms: _429  and  _431
REMARK  167  A    between atoms: _431  and  _432
REMARK  168  A    between atoms: _435  and  _437
REMARK  169  A    between atoms: _437  and  _438
REMARK  170  A    between atoms: _437  and  _440
REMARK  171  A    between atoms: _440  and  _441
REMARK  172  A    between atoms: _446  and  _448
REMARK  173  A    between atoms: _448  and  _449
REMARK  174  A    between atoms: _448  and  _451
REMARK  175  A    between atoms: _451  and  _452
REMARK  176  A    between atoms: _452  and  _453
REMARK  177  A    between atoms: _453  and  _454
REMARK  178  A    between atoms: _454  and  _455
REMARK  179  A    between atoms: _459  and  _461
REMARK  180  A    between atoms: _461  and  _462
REMARK  181  A    between atoms: _461  and  _464
REMARK  182  A    between atoms: _464  and  _465
REMARK  183  A    between atoms: _470  and  _472
REMARK  184  A    between atoms: _472  and  _473
REMARK  185  A    between atoms: _475  and  _477
REMARK  186  A    between atoms: _477  and  _478
REMARK  187  A    between atoms: _477  and  _480
REMARK  188  A    between atoms: _480  and  _481
REMARK  189  A    between atoms: _481  and  _482
REMARK  190  A    between atoms: _482  and  _483
REMARK  191  A    between atoms: _483  and  _484
REMARK  192  A    between atoms: _488  and  _490
REMARK  193  A    between atoms: _490  and  _491
REMARK  194  A    between atoms: _490  and  _493
REMARK  195  A    between atoms: _493  and  _494
REMARK  196  A    between atoms: _494  and  _495
REMARK  197  A    between atoms: _495  and  _496
REMARK  198  A    between atoms: _505  and  _507
REMARK  199  A    between atoms: _507  and  _508
REMARK  200  A    between atoms: _507  and  _510
REMARK  201  A    between atoms: _510  and  _511
REMARK  202  A    between atoms: _516  and  _517
REMARK  203  A    between atoms: _519  and  _521
REMARK  204  A    between atoms: _521  and  _522
REMARK  205  A    between atoms: _521  and  _524
REMARK  206  A    between atoms: _524  and  _525
REMARK  207  A    between atoms: _525  and  _526
REMARK  208  A    between atoms: _526  and  _527
REMARK  209  A    between atoms: _527  and  _528
REMARK  210  A    between atoms: _532  and  _534
REMARK  211  A    between atoms: _534  and  _535
REMARK  212  A    between atoms: _534  and  _537
REMARK  213  A    between atoms: _537  and  _538
REMARK  214  A    between atoms: _540  and  _542
REMARK  215  A    between atoms: _542  and  _543
REMARK  216  A    between atoms: _542  and  _545
REMARK  217  A    between atoms: _545  and  _546
REMARK  218  A    between atoms: _549  and  _551
REMARK  219  A    between atoms: _551  and  _552
REMARK  220  A    between atoms: _551  and  _554
REMARK  221  A    between atoms: _554  and  _555
REMARK  222  A    between atoms: _555  and  _556
REMARK  223  A    between atoms: _559  and  _561
REMARK  224  A    between atoms: _561  and  _562
REMARK  225  A    between atoms: _565  and  _567
REMARK  226  A    between atoms: _567  and  _568
REMARK  227  A    between atoms: _567  and  _570
REMARK  228  A    between atoms: _570  and  _571
REMARK  229  A    between atoms: _573  and  _575
REMARK  230  A    between atoms: _575  and  _576
REMARK  231  A    between atoms: _578  and  _580
REMARK  232  A    between atoms: _580  and  _581
REMARK  233  A    between atoms: _580  and  _583
REMARK  234  A    between atoms: _583  and  _584
REMARK  235  A    between atoms: _587  and  _589
REMARK  236  A    between atoms: _589  and  _590
REMARK  237  A    between atoms: _592  and  _594
REMARK  238  A    between atoms: _594  and  _595
REMARK  239  A    between atoms: _594  and  _597
REMARK  240  A    between atoms: _597  and  _598
REMARK  241  A    between atoms: _603  and  _605
REMARK  242  A    between atoms: _605  and  _606
REMARK  243  A    between atoms: _605  and  _608
REMARK  244  A    between atoms: _608  and  _609
REMARK  245  A    between atoms: _609  and  _610
REMARK  246  A    between atoms: _617  and  _618
REMARK  247  A    between atoms: _618  and  _634
REMARK  248  A    between atoms: _619  and  _621
REMARK  249  A    between atoms: _621  and  _622
REMARK  250  A    between atoms: _622  and  _623
REMARK  251  A    between atoms: _627  and  _629
REMARK  252  A    between atoms: _629  and  _630
REMARK  253  A    between atoms: _629  and  _637
REMARK  254  A    between atoms: _630  and  _631
REMARK  255  A    between atoms: _631  and  _632
REMARK  256  A    between atoms: _632  and  _633
REMARK  257  A    between atoms: _633  and  _634
REMARK  258  A    between atoms: _639  and  _641
REMARK  259  A    between atoms: _641  and  _642
REMARK  260  A    between atoms: _641  and  _644
REMARK  261  A    between atoms: _644  and  _645
REMARK  262  A    between atoms: _648  and  _650
REMARK  263  A    between atoms: _650  and  _651
REMARK  264  A    between atoms: _653  and  _655
REMARK  265  A    between atoms: _655  and  _656
REMARK  266  A    between atoms: _659  and  _661
REMARK  267  A    between atoms: _661  and  _662
REMARK  268  A    between atoms: _661  and  _664
REMARK  269  A    between atoms: _664  and  _665
REMARK  270  A    between atoms: _670  and  _671
REMARK                            x       y       z     vdW  Elec       q    Type
REMARK                         _______ _______ _______ _____ _____    ______ ____
ROOT
ATOM      1  O   HOH     1      36.773  19.696  37.166  0.00  0.00    +0.000 OA
ENDROOT
TORSDOF 0
REMARK  Name = ../refined-set-2016/3g2k/3g2k_pocket.pdb
REMARK  270 active torsions:
REMARK  status: ('A' for Active; 'I' for Inactive)
REMARK    1  A    between atoms: _1  and  _3
REMARK    2  A    between atoms: _3  and  _4
REMARK    3  A    between atoms: _3  and  _6
REMARK    4  A    between atoms: _6  and  _7
REMARK    5  A    between atoms: _12  and  _13
REMARK    6  A    between atoms: _15  and  _17
REMARK    7  A    between atoms: _17  and  _18
REMARK    8  A    between atoms: _17  and  _20
REMARK    9  A    between atoms: _20  and  _21
REMARK   10  A    between atoms: _24  and  _26
REMARK   11  A    between atoms: _26  and  _27
REMARK   12  A    between atoms: _26  and  _29
REMARK   13  A    between atoms: _29  and  _30
REMARK   14  A    between atoms: _30  and  _31
REMARK   15  A    between atoms: _34  and  _36
REMARK   16  A    between atoms: _36  and  _37
REMARK   17  A    between atoms: _36  and  _39
REMARK   18  A    between atoms: _39  and  _40
REMARK   19  A    between atoms: _45  and  _47
REMARK   20  A    between atoms: _47  and  _48
REMARK   21  A    between atoms: _50  and  _52
REMARK   22  A    between atoms: _52  and  _53
REMARK   23  A    between atoms: _55  and  _57
REMARK   24  A    between atoms: _57  and  _58
REMARK   25  A    between atoms: _57  and  _60
REMARK   26  A    between atoms: _60  and  _61
REMARK   27  A    between atoms: _64  and  _66
REMARK   28  A    between atoms: _66  and  _67
REMARK   29  A    between atoms: _69  and  _71
REMARK   30  A    between atoms: _71  and  _72
REMARK   31  A    between atoms: _71  and  _74
REMARK   32  A    between atoms: _74  and  _75
REMARK   33  A    between atoms: _75  and  _76
REMARK   34  A    between atoms: _76  and  _77
REMARK   35  A    between atoms: _86  and  _88
REMARK   36  A    between atoms: _88  and  _89
REMARK   37  A    between atoms: _88  and  _91
REMARK   38  A    between atoms: _91  and  _92
REMARK   39  A    between atoms: _95  and  _97
REMARK   40  A    between atoms: _97  and  _98
REMARK   41  A    between atoms: _101  and  _103
REMARK   42  A    between atoms: _103  and  _104
REMARK   43  A    between atoms: _103  and  _106
REMARK   44  A    between atoms: _106  and  _107
REMARK   45  A    between atoms: _113  and  _115
REMARK   46  A    between atoms: _115  and  _116
REMARK   47  A    between atoms: _115  and  _118
REMARK   48  A    between atoms: _118  and  _119
REMARK   49  A    between atoms: _124  and  _125
REMARK   50  A    between atoms: _128  and  _129
REMARK   51  A    between atoms: _134  and  _136
REMARK   52  A    between atoms: _136  and  _137
REMARK   53  A    between atoms: _136  and  _139
REMARK   54  A    between atoms: _139  and  _140
REMARK   55  A    between atoms: _145  and  _147
REMARK   56  A    between atoms: _147  and  _148
REMARK   57  A    between atoms: _147  and  _150
REMARK   58  A    between atoms: _150  and  _151
REMARK   59  A    between atoms: _154  and  _156
REMARK   60  A    between atoms: _156  and  _157
REMARK   61  A    between atoms: _156  and  _159
REMARK   62  A    between atoms: _159  and  _160
REMARK   63  A    between atoms: _165  and  _167
REMARK   64  A    between atoms: _167  and  _168
REMARK   65  A    between atoms: _167  and  _170
REMARK   66  A    between atoms: _170  and  _171
REMARK   67  A    between atoms: _177  and  _179
REMARK   68  A    between atoms: _179  and  _180
REMARK   69  A    between atoms: _179  and  _182
REMARK   70  A    between atoms: _182  and  _183
REMARK   71  A    between atoms: _189  and  _191
REMARK   72  A    between atoms: _191  and  _192
REMARK   73  A    between atoms: _191  and  _194
REMARK   74  A    between atoms: _194  and  _195
REMARK   75  A    between atoms: _195  and  _196
REMARK   76  A    between atoms: _199  and  _201
REMARK   77  A    between atoms: _201  and  _202
REMARK   78  A    between atoms: _201  and  _204
REMARK   79  A    between atoms: _204  and  _205
REMARK   80  A    between atoms: _205  and  _206
REMARK   81  A    between atoms: _206  and  _207
REMARK   82  A    between atoms: _216  and  _218
REMARK   83  A    between atoms: _218  and  _219
REMARK   84  A    between atoms: _218  and  _221
REMARK   85  A    between atoms: _221  and  _222
REMARK   86  A    between atoms: _222  and  _223
REMARK   87  A    between atoms: _226  and  _228
REMARK   88  A    between atoms: _228  and  _229
REMARK   89  A    between atoms: _228  and  _231
REMARK   90  A    between atoms: _231  and  _232
REMARK   91  A    between atoms: _237  and  _239
REMARK   92  A    between atoms: _239  and  _240
REMARK   93  A    between atoms: _239  and  _242
REMARK   94  A    between atoms: _242  and  _243
REMARK   95  A    between atoms: _246  and  _248
REMARK   96  A    between atoms: _248  and  _249
REMARK   97  A    between atoms: _248  and  _251
REMARK   98  A    between atoms: _251  and  _252
REMARK   99  A    between atoms: _255  and  _257
REMARK  100  A    between atoms: _257  and  _258
REMARK  101  A    between atoms: _257  and  _260
REMARK  102  A    between atoms: _260  and  _261
REMARK  103  A    between atoms: _266  and  _268
REMARK  104  A    between atoms: _268  and  _269
REMARK  105  A    between atoms: _268  and  _271
REMARK  106  A    between atoms: _271  and  _272
REMARK  107  A    between atoms: _277  and  _278
REMARK  108  A    between atoms: _280  and  _282
REMARK  109  A    between atoms: _282  and  _283
REMARK  110  A    between atoms: _282  and  _285
REMARK  111  A    between atoms: _285  and  _286
REMARK  112  A    between atoms: _289  and  _291
REMARK  113  A    between atoms: _291  and  _292
REMARK  114  A    between atoms: _291  and  _294
REMARK  115  A    between atoms: _294  and  _295
REMARK  116  A    between atoms: _300  and  _302
REMARK  117  A    between atoms: _302  and  _303
REMARK  118  A    between atoms: _302  and  _305
REMARK  119  A    between atoms: _305  and  _306
REMARK  120  A    between atoms: _311  and  _313
REMARK  121  A    between atoms: _313  and  _314
REMARK  122  A    between atoms: _313  and  _316
REMARK  123  A    between atoms: _316  and  _317
REMARK  124  A    between atoms: _320  and  _322
REMARK  125  A    between atoms: _322  and  _323
REMARK  126  A    between atoms: _322  and  _325
REMARK  127  A    between atoms: _328  and  _330
REMARK  128  A    between atoms: _330  and  _331
REMARK  129  A    between atoms: _330  and  _333
REMARK  130  A    between atoms: _333  and  _334
REMARK  131  A    between atoms: _337  and  _339
REMARK  132  A    between atoms: _339  and  _340
REMARK  133  A    between atoms: _339  and  _342
REMARK  134  A    between atoms: _342  and  _343
REMARK  135  A    between atoms: _343  and  _344
REMARK  136  A    between atoms: _347  and  _349
REMARK  137  A    between atoms: _349  and  _350
REMARK  138  A    between atoms: _353  and  _355
REMARK  139  A    between atoms: _355  and  _356
REMARK  140  A    between atoms: _355  and  _358
REMARK  141  A    between atoms: _358  and  _359
REMARK  142  A    between atoms: _362  and  _364
REMARK  143  A    between atoms: _364  and  _365
REMARK  144  A    between atoms: _364  and  _367
REMARK  145  A    between atoms: _367  and  _368
REMARK  146  A    between atoms: _368  and  _369
REMARK  147  A    between atoms: _372  and  _374
REMARK  148  A    between atoms: _374  and  _375
REMARK  149  A    between atoms: _374  and  _377
REMARK  150  A    between atoms: _377  and  _378
REMARK  151  A    between atoms: _378  and  _379
REMARK  152  A    between atoms: _379  and  _380
REMARK  153  A    between atoms: _389  and  _391
REMARK  154  A    between atoms: _391  and  _392
REMARK  155  A    between atoms: _391  and  _394
REMARK  156  A    between atoms: _394  and  _395
REMARK  157  A    between atoms: _405  and  _407
REMARK  158  A    between atoms: _407  and  _408
REMARK  159  A    between atoms: _407  and  _410
REMARK  160  A    between atoms: _410  and  _411
REMARK  161  A    between atoms: _416  and  _418
REMARK  162  A    between atoms: _418  and  _419
REMARK  163  A    between atoms: _421  and  _423
REMARK  164  A    between atoms: _423  and  _424
REMARK  165  A    between atoms: _423  and  _426
REMARK  166  A    between atoms: _429  and  _431
REMARK  167  A    between atoms: _431  and  _432
REMARK  168  A    between atoms: _435  and  _437
REMARK  169  A    between atoms: _437  and  _438
REMARK  170  A    between atoms: _437  and  _440
REMARK  171  A    between atoms: _440  and  _441
REMARK  172  A    between atoms: _446  and  _448
REMARK  173  A    between atoms: _448  and  _449
REMARK  174  A    between atoms: _448  and  _451
REMARK  175  A    between atoms: _451  and  _452
REMARK  176  A    between atoms: _452  and  _453
REMARK  177  A    between atoms: _453  and  _454
REMARK  178  A    between atoms: _454  and  _455
REMARK  179  A    between atoms: _459  and  _461
REMARK  180  A    between atoms: _461  and  _462
REMARK  181  A    between atoms: _461  and  _464
REMARK  182  A    between atoms: _464  and  _465
REMARK  183  A    between atoms: _470  and  _472
REMARK  184  A    between atoms: _472  and  _473
REMARK  185  A    between atoms: _475  and  _477
REMARK  186  A    between atoms: _477  and  _478
REMARK  187  A    between atoms: _477  and  _480
REMARK  188  A    between atoms: _480  and  _481
REMARK  189  A    between atoms: _481  and  _482
REMARK  190  A    between atoms: _482  and  _483
REMARK  191  A    between atoms: _483  and  _484
REMARK  192  A    between atoms: _488  and  _490
REMARK  193  A    between atoms: _490  and  _491
REMARK  194  A    between atoms: _490  and  _493
REMARK  195  A    between atoms: _493  and  _494
REMARK  196  A    between atoms: _494  and  _495
REMARK  197  A    between atoms: _495  and  _496
REMARK  198  A    between atoms: _505  and  _507
REMARK  199  A    between atoms: _507  and  _508
REMARK  200  A    between atoms: _507  and  _510
REMARK  201  A    between atoms: _510  and  _511
REMARK  202  A    between atoms: _516  and  _517
REMARK  203  A    between atoms: _519  and  _521
REMARK  204  A    between atoms: _521  and  _522
REMARK  205  A    between atoms: _521  and  _524
REMARK  206  A    between atoms: _524  and  _525
REMARK  207  A    between atoms: _525  and  _526
REMARK  208  A    between atoms: _526  and  _527
REMARK  209  A    between atoms: _527  and  _528
REMARK  210  A    between atoms: _532  and  _534
REMARK  211  A    between atoms: _534  and  _535
REMARK  212  A    between atoms: _534  and  _537
REMARK  213  A    between atoms: _537  and  _538
REMARK  214  A    between atoms: _540  and  _542
REMARK  215  A    between atoms: _542  and  _543
REMARK  216  A    between atoms: _542  and  _545
REMARK  217  A    between atoms: _545  and  _546
REMARK  218  A    between atoms: _549  and  _551
REMARK  219  A    between atoms: _551  and  _552
REMARK  220  A    between atoms: _551  and  _554
REMARK  221  A    between atoms: _554  and  _555
REMARK  222  A    between atoms: _555  and  _556
REMARK  223  A    between atoms: _559  and  _561
REMARK  224  A    between atoms: _561  and  _562
REMARK  225  A    between atoms: _565  and  _567
REMARK  226  A    between atoms: _567  and  _568
REMARK  227  A    between atoms: _567  and  _570
REMARK  228  A    between atoms: _570  and  _571
REMARK  229  A    between atoms: _573  and  _575
REMARK  230  A    between atoms: _575  and  _576
REMARK  231  A    between atoms: _578  and  _580
REMARK  232  A    between atoms: _580  and  _581
REMARK  233  A    between atoms: _580  and  _583
REMARK  234  A    between atoms: _583  and  _584
REMARK  235  A    between atoms: _587  and  _589
REMARK  236  A    between atoms: _589  and  _590
REMARK  237  A    between atoms: _592  and  _594
REMARK  238  A    between atoms: _594  and  _595
REMARK  239  A    between atoms: _594  and  _597
REMARK  240  A    between atoms: _597  and  _598
REMARK  241  A    between atoms: _603  and  _605
REMARK  242  A    between atoms: _605  and  _606
REMARK  243  A    between atoms: _605  and  _608
REMARK  244  A    between atoms: _608  and  _609
REMARK  245  A    between atoms: _609  and  _610
REMARK  246  A    between atoms: _617  and  _618
REMARK  247  A    between atoms: _618  and  _634
REMARK  248  A    between atoms: _619  and  _621
REMARK  249  A    between atoms: _621  and  _622
REMARK  250  A    between atoms: _622  and  _623
REMARK  251  A    between atoms: _627  and  _629
REMARK  252  A    between atoms: _629  and  _630
REMARK  253  A    between atoms: _629  and  _637
REMARK  254  A    between atoms: _630  and  _631
REMARK  255  A    between atoms: _631  and  _632
REMARK  256  A    between atoms: _632  and  _633
REMARK  257  A    between atoms: _633  and  _634
REMARK  258  A    between atoms: _639  and  _641
REMARK  259  A    between atoms: _641  and  _642
REMARK  260  A    between atoms: _641  and  _644
REMARK  261  A    between atoms: _644  and  _645
REMARK  262  A    between atoms: _648  and  _650
REMARK  263  A    between atoms: _650  and  _651
REMARK  264  A    between atoms: _653  and  _655
REMARK  265  A    between atoms: _655  and  _656
REMARK  266  A    between atoms: _659  and  _661
REMARK  267  A    between atoms: _661  and  _662
REMARK  268  A    between atoms: _661  and  _664
REMARK  269  A    between atoms: _664  and  _665
REMARK  270  A    between atoms: _670  and  _671
REMARK                            x       y       z     vdW  Elec       q    Type
REMARK                         _______ _______ _______ _____ _____    ______ ____
ROOT
ATOM      1  O   HOH     1      43.104  20.698  30.262  0.00  0.00    +0.000 OA
ENDROOT
TORSDOF 0
REMARK  Name = ../refined-set-2016/3g2k/3g2k_pocket.pdb
REMARK  270 active torsions:
REMARK  status: ('A' for Active; 'I' for Inactive)
REMARK    1  A    between atoms: _1  and  _3
REMARK    2  A    between atoms: _3  and  _4
REMARK    3  A    between atoms: _3  and  _6
REMARK    4  A    between atoms: _6  and  _7
REMARK    5  A    between atoms: _12  and  _13
REMARK    6  A    between atoms: _15  and  _17
REMARK    7  A    between atoms: _17  and  _18
REMARK    8  A    between atoms: _17  and  _20
REMARK    9  A    between atoms: _20  and  _21
REMARK   10  A    between atoms: _24  and  _26
REMARK   11  A    between atoms: _26  and  _27
REMARK   12  A    between atoms: _26  and  _29
REMARK   13  A    between atoms: _29  and  _30
REMARK   14  A    between atoms: _30  and  _31
REMARK   15  A    between atoms: _34  and  _36
REMARK   16  A    between atoms: _36  and  _37
REMARK   17  A    between atoms: _36  and  _39
REMARK   18  A    between atoms: _39  and  _40
REMARK   19  A    between atoms: _45  and  _47
REMARK   20  A    between atoms: _47  and  _48
REMARK   21  A    between atoms: _50  and  _52
REMARK   22  A    between atoms: _52  and  _53
REMARK   23  A    between atoms: _55  and  _57
REMARK   24  A    between atoms: _57  and  _58
REMARK   25  A    between atoms: _57  and  _60
REMARK   26  A    between atoms: _60  and  _61
REMARK   27  A    between atoms: _64  and  _66
REMARK   28  A    between atoms: _66  and  _67
REMARK   29  A    between atoms: _69  and  _71
REMARK   30  A    between atoms: _71  and  _72
REMARK   31  A    between atoms: _71  and  _74
REMARK   32  A    between atoms: _74  and  _75
REMARK   33  A    between atoms: _75  and  _76
REMARK   34  A    between atoms: _76  and  _77
REMARK   35  A    between atoms: _86  and  _88
REMARK   36  A    between atoms: _88  and  _89
REMARK   37  A    between atoms: _88  and  _91
REMARK   38  A    between atoms: _91  and  _92
REMARK   39  A    between atoms: _95  and  _97
REMARK   40  A    between atoms: _97  and  _98
REMARK   41  A    between atoms: _101  and  _103
REMARK   42  A    between atoms: _103  and  _104
REMARK   43  A    between atoms: _103  and  _106
REMARK   44  A    between atoms: _106  and  _107
REMARK   45  A    between atoms: _113  and  _115
REMARK   46  A    between atoms: _115  and  _116
REMARK   47  A    between atoms: _115  and  _118
REMARK   48  A    between atoms: _118  and  _119
REMARK   49  A    between atoms: _124  and  _125
REMARK   50  A    between atoms: _128  and  _129
REMARK   51  A    between atoms: _134  and  _136
REMARK   52  A    between atoms: _136  and  _137
REMARK   53  A    between atoms: _136  and  _139
REMARK   54  A    between atoms: _139  and  _140
REMARK   55  A    between atoms: _145  and  _147
REMARK   56  A    between atoms: _147  and  _148
REMARK   57  A    between atoms: _147  and  _150
REMARK   58  A    between atoms: _150  and  _151
REMARK   59  A    between atoms: _154  and  _156
REMARK   60  A    between atoms: _156  and  _157
REMARK   61  A    between atoms: _156  and  _159
REMARK   62  A    between atoms: _159  and  _160
REMARK   63  A    between atoms: _165  and  _167
REMARK   64  A    between atoms: _167  and  _168
REMARK   65  A    between atoms: _167  and  _170
REMARK   66  A    between atoms: _170  and  _171
REMARK   67  A    between atoms: _177  and  _179
REMARK   68  A    between atoms: _179  and  _180
REMARK   69  A    between atoms: _179  and  _182
REMARK   70  A    between atoms: _182  and  _183
REMARK   71  A    between atoms: _189  and  _191
REMARK   72  A    between atoms: _191  and  _192
REMARK   73  A    between atoms: _191  and  _194
REMARK   74  A    between atoms: _194  and  _195
REMARK   75  A    between atoms: _195  and  _196
REMARK   76  A    between atoms: _199  and  _201
REMARK   77  A    between atoms: _201  and  _202
REMARK   78  A    between atoms: _201  and  _204
REMARK   79  A    between atoms: _204  and  _205
REMARK   80  A    between atoms: _205  and  _206
REMARK   81  A    between atoms: _206  and  _207
REMARK   82  A    between atoms: _216  and  _218
REMARK   83  A    between atoms: _218  and  _219
REMARK   84  A    between atoms: _218  and  _221
REMARK   85  A    between atoms: _221  and  _222
REMARK   86  A    between atoms: _222  and  _223
REMARK   87  A    between atoms: _226  and  _228
REMARK   88  A    between atoms: _228  and  _229
REMARK   89  A    between atoms: _228  and  _231
REMARK   90  A    between atoms: _231  and  _232
REMARK   91  A    between atoms: _237  and  _239
REMARK   92  A    between atoms: _239  and  _240
REMARK   93  A    between atoms: _239  and  _242
REMARK   94  A    between atoms: _242  and  _243
REMARK   95  A    between atoms: _246  and  _248
REMARK   96  A    between atoms: _248  and  _249
REMARK   97  A    between atoms: _248  and  _251
REMARK   98  A    between atoms: _251  and  _252
REMARK   99  A    between atoms: _255  and  _257
REMARK  100  A    between atoms: _257  and  _258
REMARK  101  A    between atoms: _257  and  _260
REMARK  102  A    between atoms: _260  and  _261
REMARK  103  A    between atoms: _266  and  _268
REMARK  104  A    between atoms: _268  and  _269
REMARK  105  A    between atoms: _268  and  _271
REMARK  106  A    between atoms: _271  and  _272
REMARK  107  A    between atoms: _277  and  _278
REMARK  108  A    between atoms: _280  and  _282
REMARK  109  A    between atoms: _282  and  _283
REMARK  110  A    between atoms: _282  and  _285
REMARK  111  A    between atoms: _285  and  _286
REMARK  112  A    between atoms: _289  and  _291
REMARK  113  A    between atoms: _291  and  _292
REMARK  114  A    between atoms: _291  and  _294
REMARK  115  A    between atoms: _294  and  _295
REMARK  116  A    between atoms: _300  and  _302
REMARK  117  A    between atoms: _302  and  _303
REMARK  118  A    between atoms: _302  and  _305
REMARK  119  A    between atoms: _305  and  _306
REMARK  120  A    between atoms: _311  and  _313
REMARK  121  A    between atoms: _313  and  _314
REMARK  122  A    between atoms: _313  and  _316
REMARK  123  A    between atoms: _316  and  _317
REMARK  124  A    between atoms: _320  and  _322
REMARK  125  A    between atoms: _322  and  _323
REMARK  126  A    between atoms: _322  and  _325
REMARK  127  A    between atoms: _328  and  _330
REMARK  128  A    between atoms: _330  and  _331
REMARK  129  A    between atoms: _330  and  _333
REMARK  130  A    between atoms: _333  and  _334
REMARK  131  A    between atoms: _337  and  _339
REMARK  132  A    between atoms: _339  and  _340
REMARK  133  A    between atoms: _339  and  _342
REMARK  134  A    between atoms: _342  and  _343
REMARK  135  A    between atoms: _343  and  _344
REMARK  136  A    between atoms: _347  and  _349
REMARK  137  A    between atoms: _349  and  _350
REMARK  138  A    between atoms: _353  and  _355
REMARK  139  A    between atoms: _355  and  _356
REMARK  140  A    between atoms: _355  and  _358
REMARK  141  A    between atoms: _358  and  _359
REMARK  142  A    between atoms: _362  and  _364
REMARK  143  A    between atoms: _364  and  _365
REMARK  144  A    between atoms: _364  and  _367
REMARK  145  A    between atoms: _367  and  _368
REMARK  146  A    between atoms: _368  and  _369
REMARK  147  A    between atoms: _372  and  _374
REMARK  148  A    between atoms: _374  and  _375
REMARK  149  A    between atoms: _374  and  _377
REMARK  150  A    between atoms: _377  and  _378
REMARK  151  A    between atoms: _378  and  _379
REMARK  152  A    between atoms: _379  and  _380
REMARK  153  A    between atoms: _389  and  _391
REMARK  154  A    between atoms: _391  and  _392
REMARK  155  A    between atoms: _391  and  _394
REMARK  156  A    between atoms: _394  and  _395
REMARK  157  A    between atoms: _405  and  _407
REMARK  158  A    between atoms: _407  and  _408
REMARK  159  A    between atoms: _407  and  _410
REMARK  160  A    between atoms: _410  and  _411
REMARK  161  A    between atoms: _416  and  _418
REMARK  162  A    between atoms: _418  and  _419
REMARK  163  A    between atoms: _421  and  _423
REMARK  164  A    between atoms: _423  and  _424
REMARK  165  A    between atoms: _423  and  _426
REMARK  166  A    between atoms: _429  and  _431
REMARK  167  A    between atoms: _431  and  _432
REMARK  168  A    between atoms: _435  and  _437
REMARK  169  A    between atoms: _437  and  _438
REMARK  170  A    between atoms: _437  and  _440
REMARK  171  A    between atoms: _440  and  _441
REMARK  172  A    between atoms: _446  and  _448
REMARK  173  A    between atoms: _448  and  _449
REMARK  174  A    between atoms: _448  and  _451
REMARK  175  A    between atoms: _451  and  _452
REMARK  176  A    between atoms: _452  and  _453
REMARK  177  A    between atoms: _453  and  _454
REMARK  178  A    between atoms: _454  and  _455
REMARK  179  A    between atoms: _459  and  _461
REMARK  180  A    between atoms: _461  and  _462
REMARK  181  A    between atoms: _461  and  _464
REMARK  182  A    between atoms: _464  and  _465
REMARK  183  A    between atoms: _470  and  _472
REMARK  184  A    between atoms: _472  and  _473
REMARK  185  A    between atoms: _475  and  _477
REMARK  186  A    between atoms: _477  and  _478
REMARK  187  A    between atoms: _477  and  _480
REMARK  188  A    between atoms: _480  and  _481
REMARK  189  A    between atoms: _481  and  _482
REMARK  190  A    between atoms: _482  and  _483
REMARK  191  A    between atoms: _483  and  _484
REMARK  192  A    between atoms: _488  and  _490
REMARK  193  A    between atoms: _490  and  _491
REMARK  194  A    between atoms: _490  and  _493
REMARK  195  A    between atoms: _493  and  _494
REMARK  196  A    between atoms: _494  and  _495
REMARK  197  A    between atoms: _495  and  _496
REMARK  198  A    between atoms: _505  and  _507
REMARK  199  A    between atoms: _507  and  _508
REMARK  200  A    between atoms: _507  and  _510
REMARK  201  A    between atoms: _510  and  _511
REMARK  202  A    between atoms: _516  and  _517
REMARK  203  A    between atoms: _519  and  _521
REMARK  204  A    between atoms: _521  and  _522
REMARK  205  A    between atoms: _521  and  _524
REMARK  206  A    between atoms: _524  and  _525
REMARK  207  A    between atoms: _525  and  _526
REMARK  208  A    between atoms: _526  and  _527
REMARK  209  A    between atoms: _527  and  _528
REMARK  210  A    between atoms: _532  and  _534
REMARK  211  A    between atoms: _534  and  _535
REMARK  212  A    between atoms: _534  and  _537
REMARK  213  A    between atoms: _537  and  _538
REMARK  214  A    between atoms: _540  and  _542
REMARK  215  A    between atoms: _542  and  _543
REMARK  216  A    between atoms: _542  and  _545
REMARK  217  A    between atoms: _545  and  _546
REMARK  218  A    between atoms: _549  and  _551
REMARK  219  A    between atoms: _551  and  _552
REMARK  220  A    between atoms: _551  and  _554
REMARK  221  A    between atoms: _554  and  _555
REMARK  222  A    between atoms: _555  and  _556
REMARK  223  A    between atoms: _559  and  _561
REMARK  224  A    between atoms: _561  and  _562
REMARK  225  A    between atoms: _565  and  _567
REMARK  226  A    between atoms: _567  and  _568
REMARK  227  A    between atoms: _567  and  _570
REMARK  228  A    between atoms: _570  and  _571
REMARK  229  A    between atoms: _573  and  _575
REMARK  230  A    between atoms: _575  and  _576
REMARK  231  A    between atoms: _578  and  _580
REMARK  232  A    between atoms: _580  and  _581
REMARK  233  A    between atoms: _580  and  _583
REMARK  234  A    between atoms: _583  and  _584
REMARK  235  A    between atoms: _587  and  _589
REMARK  236  A    between atoms: _589  and  _590
REMARK  237  A    between atoms: _592  and  _594
REMARK  238  A    between atoms: _594  and  _595
REMARK  239  A    between atoms: _594  and  _597
REMARK  240  A    between atoms: _597  and  _598
REMARK  241  A    between atoms: _603  and  _605
REMARK  242  A    between atoms: _605  and  _606
REMARK  243  A    between atoms: _605  and  _608
REMARK  244  A    between atoms: _608  and  _609
REMARK  245  A    between atoms: _609  and  _610
REMARK  246  A    between atoms: _617  and  _618
REMARK  247  A    between atoms: _618  and  _634
REMARK  248  A    between atoms: _619  and  _621
REMARK  249  A    between atoms: _621  and  _622
REMARK  250  A    between atoms: _622  and  _623
REMARK  251  A    between atoms: _627  and  _629
REMARK  252  A    between atoms: _629  and  _630
REMARK  253  A    between atoms: _629  and  _637
REMARK  254  A    between atoms: _630  and  _631
REMARK  255  A    between atoms: _631  and  _632
REMARK  256  A    between atoms: _632  and  _633
REMARK  257  A    between atoms: _633  and  _634
REMARK  258  A    between atoms: _639  and  _641
REMARK  259  A    between atoms: _641  and  _642
REMARK  260  A    between atoms: _641  and  _644
REMARK  261  A    between atoms: _644  and  _645
REMARK  262  A    between atoms: _648  and  _650
REMARK  263  A    between atoms: _650  and  _651
REMARK  264  A    between atoms: _653  and  _655
REMARK  265  A    between atoms: _655  and  _656
REMARK  266  A    between atoms: _659  and  _661
REMARK  267  A    between atoms: _661  and  _662
REMARK  268  A    between atoms: _661  and  _664
REMARK  269  A    between atoms: _664  and  _665
REMARK  270  A    between atoms: _670  and  _671
REMARK                            x       y       z     vdW  Elec       q    Type
REMARK                         _______ _______ _______ _____ _____    ______ ____
ROOT
ATOM      1  O   HOH     1      44.528  22.854  32.169  0.00  0.00    +0.000 OA
ENDROOT
TORSDOF 0
REMARK  Name = ../refined-set-2016/3g2k/3g2k_pocket.pdb
REMARK  270 active torsions:
REMARK  status: ('A' for Active; 'I' for Inactive)
REMARK    1  A    between atoms: _1  and  _3
REMARK    2  A    between atoms: _3  and  _4
REMARK    3  A    between atoms: _3  and  _6
REMARK    4  A    between atoms: _6  and  _7
REMARK    5  A    between atoms: _12  and  _13
REMARK    6  A    between atoms: _15  and  _17
REMARK    7  A    between atoms: _17  and  _18
REMARK    8  A    between atoms: _17  and  _20
REMARK    9  A    between atoms: _20  and  _21
REMARK   10  A    between atoms: _24  and  _26
REMARK   11  A    between atoms: _26  and  _27
REMARK   12  A    between atoms: _26  and  _29
REMARK   13  A    between atoms: _29  and  _30
REMARK   14  A    between atoms: _30  and  _31
REMARK   15  A    between atoms: _34  and  _36
REMARK   16  A    between atoms: _36  and  _37
REMARK   17  A    between atoms: _36  and  _39
REMARK   18  A    between atoms: _39  and  _40
REMARK   19  A    between atoms: _45  and  _47
REMARK   20  A    between atoms: _47  and  _48
REMARK   21  A    between atoms: _50  and  _52
REMARK   22  A    between atoms: _52  and  _53
REMARK   23  A    between atoms: _55  and  _57
REMARK   24  A    between atoms: _57  and  _58
REMARK   25  A    between atoms: _57  and  _60
REMARK   26  A    between atoms: _60  and  _61
REMARK   27  A    between atoms: _64  and  _66
REMARK   28  A    between atoms: _66  and  _67
REMARK   29  A    between atoms: _69  and  _71
REMARK   30  A    between atoms: _71  and  _72
REMARK   31  A    between atoms: _71  and  _74
REMARK   32  A    between atoms: _74  and  _75
REMARK   33  A    between atoms: _75  and  _76
REMARK   34  A    between atoms: _76  and  _77
REMARK   35  A    between atoms: _86  and  _88
REMARK   36  A    between atoms: _88  and  _89
REMARK   37  A    between atoms: _88  and  _91
REMARK   38  A    between atoms: _91  and  _92
REMARK   39  A    between atoms: _95  and  _97
REMARK   40  A    between atoms: _97  and  _98
REMARK   41  A    between atoms: _101  and  _103
REMARK   42  A    between atoms: _103  and  _104
REMARK   43  A    between atoms: _103  and  _106
REMARK   44  A    between atoms: _106  and  _107
REMARK   45  A    between atoms: _113  and  _115
REMARK   46  A    between atoms: _115  and  _116
REMARK   47  A    between atoms: _115  and  _118
REMARK   48  A    between atoms: _118  and  _119
REMARK   49  A    between atoms: _124  and  _125
REMARK   50  A    between atoms: _128  and  _129
REMARK   51  A    between atoms: _134  and  _136
REMARK   52  A    between atoms: _136  and  _137
REMARK   53  A    between atoms: _136  and  _139
REMARK   54  A    between atoms: _139  and  _140
REMARK   55  A    between atoms: _145  and  _147
REMARK   56  A    between atoms: _147  and  _148
REMARK   57  A    between atoms: _147  and  _150
REMARK   58  A    between atoms: _150  and  _151
REMARK   59  A    between atoms: _154  and  _156
REMARK   60  A    between atoms: _156  and  _157
REMARK   61  A    between atoms: _156  and  _159
REMARK   62  A    between atoms: _159  and  _160
REMARK   63  A    between atoms: _165  and  _167
REMARK   64  A    between atoms: _167  and  _168
REMARK   65  A    between atoms: _167  and  _170
REMARK   66  A    between atoms: _170  and  _171
REMARK   67  A    between atoms: _177  and  _179
REMARK   68  A    between atoms: _179  and  _180
REMARK   69  A    between atoms: _179  and  _182
REMARK   70  A    between atoms: _182  and  _183
REMARK   71  A    between atoms: _189  and  _191
REMARK   72  A    between atoms: _191  and  _192
REMARK   73  A    between atoms: _191  and  _194
REMARK   74  A    between atoms: _194  and  _195
REMARK   75  A    between atoms: _195  and  _196
REMARK   76  A    between atoms: _199  and  _201
REMARK   77  A    between atoms: _201  and  _202
REMARK   78  A    between atoms: _201  and  _204
REMARK   79  A    between atoms: _204  and  _205
REMARK   80  A    between atoms: _205  and  _206
REMARK   81  A    between atoms: _206  and  _207
REMARK   82  A    between atoms: _216  and  _218
REMARK   83  A    between atoms: _218  and  _219
REMARK   84  A    between atoms: _218  and  _221
REMARK   85  A    between atoms: _221  and  _222
REMARK   86  A    between atoms: _222  and  _223
REMARK   87  A    between atoms: _226  and  _228
REMARK   88  A    between atoms: _228  and  _229
REMARK   89  A    between atoms: _228  and  _231
REMARK   90  A    between atoms: _231  and  _232
REMARK   91  A    between atoms: _237  and  _239
REMARK   92  A    between atoms: _239  and  _240
REMARK   93  A    between atoms: _239  and  _242
REMARK   94  A    between atoms: _242  and  _243
REMARK   95  A    between atoms: _246  and  _248
REMARK   96  A    between atoms: _248  and  _249
REMARK   97  A    between atoms: _248  and  _251
REMARK   98  A    between atoms: _251  and  _252
REMARK   99  A    between atoms: _255  and  _257
REMARK  100  A    between atoms: _257  and  _258
REMARK  101  A    between atoms: _257  and  _260
REMARK  102  A    between atoms: _260  and  _261
REMARK  103  A    between atoms: _266  and  _268
REMARK  104  A    between atoms: _268  and  _269
REMARK  105  A    between atoms: _268  and  _271
REMARK  106  A    between atoms: _271  and  _272
REMARK  107  A    between atoms: _277  and  _278
REMARK  108  A    between atoms: _280  and  _282
REMARK  109  A    between atoms: _282  and  _283
REMARK  110  A    between atoms: _282  and  _285
REMARK  111  A    between atoms: _285  and  _286
REMARK  112  A    between atoms: _289  and  _291
REMARK  113  A    between atoms: _291  and  _292
REMARK  114  A    between atoms: _291  and  _294
REMARK  115  A    between atoms: _294  and  _295
REMARK  116  A    between atoms: _300  and  _302
REMARK  117  A    between atoms: _302  and  _303
REMARK  118  A    between atoms: _302  and  _305
REMARK  119  A    between atoms: _305  and  _306
REMARK  120  A    between atoms: _311  and  _313
REMARK  121  A    between atoms: _313  and  _314
REMARK  122  A    between atoms: _313  and  _316
REMARK  123  A    between atoms: _316  and  _317
REMARK  124  A    between atoms: _320  and  _322
REMARK  125  A    between atoms: _322  and  _323
REMARK  126  A    between atoms: _322  and  _325
REMARK  127  A    between atoms: _328  and  _330
REMARK  128  A    between atoms: _330  and  _331
REMARK  129  A    between atoms: _330  and  _333
REMARK  130  A    between atoms: _333  and  _334
REMARK  131  A    between atoms: _337  and  _339
REMARK  132  A    between atoms: _339  and  _340
REMARK  133  A    between atoms: _339  and  _342
REMARK  134  A    between atoms: _342  and  _343
REMARK  135  A    between atoms: _343  and  _344
REMARK  136  A    between atoms: _347  and  _349
REMARK  137  A    between atoms: _349  and  _350
REMARK  138  A    between atoms: _353  and  _355
REMARK  139  A    between atoms: _355  and  _356
REMARK  140  A    between atoms: _355  and  _358
REMARK  141  A    between atoms: _358  and  _359
REMARK  142  A    between atoms: _362  and  _364
REMARK  143  A    between atoms: _364  and  _365
REMARK  144  A    between atoms: _364  and  _367
REMARK  145  A    between atoms: _367  and  _368
REMARK  146  A    between atoms: _368  and  _369
REMARK  147  A    between atoms: _372  and  _374
REMARK  148  A    between atoms: _374  and  _375
REMARK  149  A    between atoms: _374  and  _377
REMARK  150  A    between atoms: _377  and  _378
REMARK  151  A    between atoms: _378  and  _379
REMARK  152  A    between atoms: _379  and  _380
REMARK  153  A    between atoms: _389  and  _391
REMARK  154  A    between atoms: _391  and  _392
REMARK  155  A    between atoms: _391  and  _394
REMARK  156  A    between atoms: _394  and  _395
REMARK  157  A    between atoms: _405  and  _407
REMARK  158  A    between atoms: _407  and  _408
REMARK  159  A    between atoms: _407  and  _410
REMARK  160  A    between atoms: _410  and  _411
REMARK  161  A    between atoms: _416  and  _418
REMARK  162  A    between atoms: _418  and  _419
REMARK  163  A    between atoms: _421  and  _423
REMARK  164  A    between atoms: _423  and  _424
REMARK  165  A    between atoms: _423  and  _426
REMARK  166  A    between atoms: _429  and  _431
REMARK  167  A    between atoms: _431  and  _432
REMARK  168  A    between atoms: _435  and  _437
REMARK  169  A    between atoms: _437  and  _438
REMARK  170  A    between atoms: _437  and  _440
REMARK  171  A    between atoms: _440  and  _441
REMARK  172  A    between atoms: _446  and  _448
REMARK  173  A    between atoms: _448  and  _449
REMARK  174  A    between atoms: _448  and  _451
REMARK  175  A    between atoms: _451  and  _452
REMARK  176  A    between atoms: _452  and  _453
REMARK  177  A    between atoms: _453  and  _454
REMARK  178  A    between atoms: _454  and  _455
REMARK  179  A    between atoms: _459  and  _461
REMARK  180  A    between atoms: _461  and  _462
REMARK  181  A    between atoms: _461  and  _464
REMARK  182  A    between atoms: _464  and  _465
REMARK  183  A    between atoms: _470  and  _472
REMARK  184  A    between atoms: _472  and  _473
REMARK  185  A    between atoms: _475  and  _477
REMARK  186  A    between atoms: _477  and  _478
REMARK  187  A    between atoms: _477  and  _480
REMARK  188  A    between atoms: _480  and  _481
REMARK  189  A    between atoms: _481  and  _482
REMARK  190  A    between atoms: _482  and  _483
REMARK  191  A    between atoms: _483  and  _484
REMARK  192  A    between atoms: _488  and  _490
REMARK  193  A    between atoms: _490  and  _491
REMARK  194  A    between atoms: _490  and  _493
REMARK  195  A    between atoms: _493  and  _494
REMARK  196  A    between atoms: _494  and  _495
REMARK  197  A    between atoms: _495  and  _496
REMARK  198  A    between atoms: _505  and  _507
REMARK  199  A    between atoms: _507  and  _508
REMARK  200  A    between atoms: _507  and  _510
REMARK  201  A    between atoms: _510  and  _511
REMARK  202  A    between atoms: _516  and  _517
REMARK  203  A    between atoms: _519  and  _521
REMARK  204  A    between atoms: _521  and  _522
REMARK  205  A    between atoms: _521  and  _524
REMARK  206  A    between atoms: _524  and  _525
REMARK  207  A    between atoms: _525  and  _526
REMARK  208  A    between atoms: _526  and  _527
REMARK  209  A    between atoms: _527  and  _528
REMARK  210  A    between atoms: _532  and  _534
REMARK  211  A    between atoms: _534  and  _535
REMARK  212  A    between atoms: _534  and  _537
REMARK  213  A    between atoms: _537  and  _538
REMARK  214  A    between atoms: _540  and  _542
REMARK  215  A    between atoms: _542  and  _543
REMARK  216  A    between atoms: _542  and  _545
REMARK  217  A    between atoms: _545  and  _546
REMARK  218  A    between atoms: _549  and  _551
REMARK  219  A    between atoms: _551  and  _552
REMARK  220  A    between atoms: _551  and  _554
REMARK  221  A    between atoms: _554  and  _555
REMARK  222  A    between atoms: _555  and  _556
REMARK  223  A    between atoms: _559  and  _561
REMARK  224  A    between atoms: _561  and  _562
REMARK  225  A    between atoms: _565  and  _567
REMARK  226  A    between atoms: _567  and  _568
REMARK  227  A    between atoms: _567  and  _570
REMARK  228  A    between atoms: _570  and  _571
REMARK  229  A    between atoms: _573  and  _575
REMARK  230  A    between atoms: _575  and  _576
REMARK  231  A    between atoms: _578  and  _580
REMARK  232  A    between atoms: _580  and  _581
REMARK  233  A    between atoms: _580  and  _583
REMARK  234  A    between atoms: _583  and  _584
REMARK  235  A    between atoms: _587  and  _589
REMARK  236  A    between atoms: _589  and  _590
REMARK  237  A    between atoms: _592  and  _594
REMARK  238  A    between atoms: _594  and  _595
REMARK  239  A    between atoms: _594  and  _597
REMARK  240  A    between atoms: _597  and  _598
REMARK  241  A    between atoms: _603  and  _605
REMARK  242  A    between atoms: _605  and  _606
REMARK  243  A    between atoms: _605  and  _608
REMARK  244  A    between atoms: _608  and  _609
REMARK  245  A    between atoms: _609  and  _610
REMARK  246  A    between atoms: _617  and  _618
REMARK  247  A    between atoms: _618  and  _634
REMARK  248  A    between atoms: _619  and  _621
REMARK  249  A    between atoms: _621  and  _622
REMARK  250  A    between atoms: _622  and  _623
REMARK  251  A    between atoms: _627  and  _629
REMARK  252  A    between atoms: _629  and  _630
REMARK  253  A    between atoms: _629  and  _637
REMARK  254  A    between atoms: _630  and  _631
REMARK  255  A    between atoms: _631  and  _632
REMARK  256  A    between atoms: _632  and  _633
REMARK  257  A    between atoms: _633  and  _634
REMARK  258  A    between atoms: _639  and  _641
REMARK  259  A    between atoms: _641  and  _642
REMARK  260  A    between atoms: _641  and  _644
REMARK  261  A    between atoms: _644  and  _645
REMARK  262  A    between atoms: _648  and  _650
REMARK  263  A    between atoms: _650  and  _651
REMARK  264  A    between atoms: _653  and  _655
REMARK  265  A    between atoms: _655  and  _656
REMARK  266  A    between atoms: _659  and  _661
REMARK  267  A    between atoms: _661  and  _662
REMARK  268  A    between atoms: _661  and  _664
REMARK  269  A    between atoms: _664  and  _665
REMARK  270  A    between atoms: _670  and  _671
REMARK                            x       y       z     vdW  Elec       q    Type
REMARK                         _______ _______ _______ _____ _____    ______ ____
ROOT
ATOM      1  O   HOH     1      35.421  12.688  31.159  0.00  0.00    +0.000 OA
ENDROOT
TORSDOF 0
REMARK  Name = ../refined-set-2016/3g2k/3g2k_pocket.pdb
REMARK  270 active torsions:
REMARK  status: ('A' for Active; 'I' for Inactive)
REMARK    1  A    between atoms: _1  and  _3
REMARK    2  A    between atoms: _3  and  _4
REMARK    3  A    between atoms: _3  and  _6
REMARK    4  A    between atoms: _6  and  _7
REMARK    5  A    between atoms: _12  and  _13
REMARK    6  A    between atoms: _15  and  _17
REMARK    7  A    between atoms: _17  and  _18
REMARK    8  A    between atoms: _17  and  _20
REMARK    9  A    between atoms: _20  and  _21
REMARK   10  A    between atoms: _24  and  _26
REMARK   11  A    between atoms: _26  and  _27
REMARK   12  A    between atoms: _26  and  _29
REMARK   13  A    between atoms: _29  and  _30
REMARK   14  A    between atoms: _30  and  _31
REMARK   15  A    between atoms: _34  and  _36
REMARK   16  A    between atoms: _36  and  _37
REMARK   17  A    between atoms: _36  and  _39
REMARK   18  A    between atoms: _39  and  _40
REMARK   19  A    between atoms: _45  and  _47
REMARK   20  A    between atoms: _47  and  _48
REMARK   21  A    between atoms: _50  and  _52
REMARK   22  A    between atoms: _52  and  _53
REMARK   23  A    between atoms: _55  and  _57
REMARK   24  A    between atoms: _57  and  _58
REMARK   25  A    between atoms: _57  and  _60
REMARK   26  A    between atoms: _60  and  _61
REMARK   27  A    between atoms: _64  and  _66
REMARK   28  A    between atoms: _66  and  _67
REMARK   29  A    between atoms: _69  and  _71
REMARK   30  A    between atoms: _71  and  _72
REMARK   31  A    between atoms: _71  and  _74
REMARK   32  A    between atoms: _74  and  _75
REMARK   33  A    between atoms: _75  and  _76
REMARK   34  A    between atoms: _76  and  _77
REMARK   35  A    between atoms: _86  and  _88
REMARK   36  A    between atoms: _88  and  _89
REMARK   37  A    between atoms: _88  and  _91
REMARK   38  A    between atoms: _91  and  _92
REMARK   39  A    between atoms: _95  and  _97
REMARK   40  A    between atoms: _97  and  _98
REMARK   41  A    between atoms: _101  and  _103
REMARK   42  A    between atoms: _103  and  _104
REMARK   43  A    between atoms: _103  and  _106
REMARK   44  A    between atoms: _106  and  _107
REMARK   45  A    between atoms: _113  and  _115
REMARK   46  A    between atoms: _115  and  _116
REMARK   47  A    between atoms: _115  and  _118
REMARK   48  A    between atoms: _118  and  _119
REMARK   49  A    between atoms: _124  and  _125
REMARK   50  A    between atoms: _128  and  _129
REMARK   51  A    between atoms: _134  and  _136
REMARK   52  A    between atoms: _136  and  _137
REMARK   53  A    between atoms: _136  and  _139
REMARK   54  A    between atoms: _139  and  _140
REMARK   55  A    between atoms: _145  and  _147
REMARK   56  A    between atoms: _147  and  _148
REMARK   57  A    between atoms: _147  and  _150
REMARK   58  A    between atoms: _150  and  _151
REMARK   59  A    between atoms: _154  and  _156
REMARK   60  A    between atoms: _156  and  _157
REMARK   61  A    between atoms: _156  and  _159
REMARK   62  A    between atoms: _159  and  _160
REMARK   63  A    between atoms: _165  and  _167
REMARK   64  A    between atoms: _167  and  _168
REMARK   65  A    between atoms: _167  and  _170
REMARK   66  A    between atoms: _170  and  _171
REMARK   67  A    between atoms: _177  and  _179
REMARK   68  A    between atoms: _179  and  _180
REMARK   69  A    between atoms: _179  and  _182
REMARK   70  A    between atoms: _182  and  _183
REMARK   71  A    between atoms: _189  and  _191
REMARK   72  A    between atoms: _191  and  _192
REMARK   73  A    between atoms: _191  and  _194
REMARK   74  A    between atoms: _194  and  _195
REMARK   75  A    between atoms: _195  and  _196
REMARK   76  A    between atoms: _199  and  _201
REMARK   77  A    between atoms: _201  and  _202
REMARK   78  A    between atoms: _201  and  _204
REMARK   79  A    between atoms: _204  and  _205
REMARK   80  A    between atoms: _205  and  _206
REMARK   81  A    between atoms: _206  and  _207
REMARK   82  A    between atoms: _216  and  _218
REMARK   83  A    between atoms: _218  and  _219
REMARK   84  A    between atoms: _218  and  _221
REMARK   85  A    between atoms: _221  and  _222
REMARK   86  A    between atoms: _222  and  _223
REMARK   87  A    between atoms: _226  and  _228
REMARK   88  A    between atoms: _228  and  _229
REMARK   89  A    between atoms: _228  and  _231
REMARK   90  A    between atoms: _231  and  _232
REMARK   91  A    between atoms: _237  and  _239
REMARK   92  A    between atoms: _239  and  _240
REMARK   93  A    between atoms: _239  and  _242
REMARK   94  A    between atoms: _242  and  _243
REMARK   95  A    between atoms: _246  and  _248
REMARK   96  A    between atoms: _248  and  _249
REMARK   97  A    between atoms: _248  and  _251
REMARK   98  A    between atoms: _251  and  _252
REMARK   99  A    between atoms: _255  and  _257
REMARK  100  A    between atoms: _257  and  _258
REMARK  101  A    between atoms: _257  and  _260
REMARK  102  A    between atoms: _260  and  _261
REMARK  103  A    between atoms: _266  and  _268
REMARK  104  A    between atoms: _268  and  _269
REMARK  105  A    between atoms: _268  and  _271
REMARK  106  A    between atoms: _271  and  _272
REMARK  107  A    between atoms: _277  and  _278
REMARK  108  A    between atoms: _280  and  _282
REMARK  109  A    between atoms: _282  and  _283
REMARK  110  A    between atoms: _282  and  _285
REMARK  111  A    between atoms: _285  and  _286
REMARK  112  A    between atoms: _289  and  _291
REMARK  113  A    between atoms: _291  and  _292
REMARK  114  A    between atoms: _291  and  _294
REMARK  115  A    between atoms: _294  and  _295
REMARK  116  A    between atoms: _300  and  _302
REMARK  117  A    between atoms: _302  and  _303
REMARK  118  A    between atoms: _302  and  _305
REMARK  119  A    between atoms: _305  and  _306
REMARK  120  A    between atoms: _311  and  _313
REMARK  121  A    between atoms: _313  and  _314
REMARK  122  A    between atoms: _313  and  _316
REMARK  123  A    between atoms: _316  and  _317
REMARK  124  A    between atoms: _320  and  _322
REMARK  125  A    between atoms: _322  and  _323
REMARK  126  A    between atoms: _322  and  _325
REMARK  127  A    between atoms: _328  and  _330
REMARK  128  A    between atoms: _330  and  _331
REMARK  129  A    between atoms: _330  and  _333
REMARK  130  A    between atoms: _333  and  _334
REMARK  131  A    between atoms: _337  and  _339
REMARK  132  A    between atoms: _339  and  _340
REMARK  133  A    between atoms: _339  and  _342
REMARK  134  A    between atoms: _342  and  _343
REMARK  135  A    between atoms: _343  and  _344
REMARK  136  A    between atoms: _347  and  _349
REMARK  137  A    between atoms: _349  and  _350
REMARK  138  A    between atoms: _353  and  _355
REMARK  139  A    between atoms: _355  and  _356
REMARK  140  A    between atoms: _355  and  _358
REMARK  141  A    between atoms: _358  and  _359
REMARK  142  A    between atoms: _362  and  _364
REMARK  143  A    between atoms: _364  and  _365
REMARK  144  A    between atoms: _364  and  _367
REMARK  145  A    between atoms: _367  and  _368
REMARK  146  A    between atoms: _368  and  _369
REMARK  147  A    between atoms: _372  and  _374
REMARK  148  A    between atoms: _374  and  _375
REMARK  149  A    between atoms: _374  and  _377
REMARK  150  A    between atoms: _377  and  _378
REMARK  151  A    between atoms: _378  and  _379
REMARK  152  A    between atoms: _379  and  _380
REMARK  153  A    between atoms: _389  and  _391
REMARK  154  A    between atoms: _391  and  _392
REMARK  155  A    between atoms: _391  and  _394
REMARK  156  A    between atoms: _394  and  _395
REMARK  157  A    between atoms: _405  and  _407
REMARK  158  A    between atoms: _407  and  _408
REMARK  159  A    between atoms: _407  and  _410
REMARK  160  A    between atoms: _410  and  _411
REMARK  161  A    between atoms: _416  and  _418
REMARK  162  A    between atoms: _418  and  _419
REMARK  163  A    between atoms: _421  and  _423
REMARK  164  A    between atoms: _423  and  _424
REMARK  165  A    between atoms: _423  and  _426
REMARK  166  A    between atoms: _429  and  _431
REMARK  167  A    between atoms: _431  and  _432
REMARK  168  A    between atoms: _435  and  _437
REMARK  169  A    between atoms: _437  and  _438
REMARK  170  A    between atoms: _437  and  _440
REMARK  171  A    between atoms: _440  and  _441
REMARK  172  A    between atoms: _446  and  _448
REMARK  173  A    between atoms: _448  and  _449
REMARK  174  A    between atoms: _448  and  _451
REMARK  175  A    between atoms: _451  and  _452
REMARK  176  A    between atoms: _452  and  _453
REMARK  177  A    between atoms: _453  and  _454
REMARK  178  A    between atoms: _454  and  _455
REMARK  179  A    between atoms: _459  and  _461
REMARK  180  A    between atoms: _461  and  _462
REMARK  181  A    between atoms: _461  and  _464
REMARK  182  A    between atoms: _464  and  _465
REMARK  183  A    between atoms: _470  and  _472
REMARK  184  A    between atoms: _472  and  _473
REMARK  185  A    between atoms: _475  and  _477
REMARK  186  A    between atoms: _477  and  _478
REMARK  187  A    between atoms: _477  and  _480
REMARK  188  A    between atoms: _480  and  _481
REMARK  189  A    between atoms: _481  and  _482
REMARK  190  A    between atoms: _482  and  _483
REMARK  191  A    between atoms: _483  and  _484
REMARK  192  A    between atoms: _488  and  _490
REMARK  193  A    between atoms: _490  and  _491
REMARK  194  A    between atoms: _490  and  _493
REMARK  195  A    between atoms: _493  and  _494
REMARK  196  A    between atoms: _494  and  _495
REMARK  197  A    between atoms: _495  and  _496
REMARK  198  A    between atoms: _505  and  _507
REMARK  199  A    between atoms: _507  and  _508
REMARK  200  A    between atoms: _507  and  _510
REMARK  201  A    between atoms: _510  and  _511
REMARK  202  A    between atoms: _516  and  _517
REMARK  203  A    between atoms: _519  and  _521
REMARK  204  A    between atoms: _521  and  _522
REMARK  205  A    between atoms: _521  and  _524
REMARK  206  A    between atoms: _524  and  _525
REMARK  207  A    between atoms: _525  and  _526
REMARK  208  A    between atoms: _526  and  _527
REMARK  209  A    between atoms: _527  and  _528
REMARK  210  A    between atoms: _532  and  _534
REMARK  211  A    between atoms: _534  and  _535
REMARK  212  A    between atoms: _534  and  _537
REMARK  213  A    between atoms: _537  and  _538
REMARK  214  A    between atoms: _540  and  _542
REMARK  215  A    between atoms: _542  and  _543
REMARK  216  A    between atoms: _542  and  _545
REMARK  217  A    between atoms: _545  and  _546
REMARK  218  A    between atoms: _549  and  _551
REMARK  219  A    between atoms: _551  and  _552
REMARK  220  A    between atoms: _551  and  _554
REMARK  221  A    between atoms: _554  and  _555
REMARK  222  A    between atoms: _555  and  _556
REMARK  223  A    between atoms: _559  and  _561
REMARK  224  A    between atoms: _561  and  _562
REMARK  225  A    between atoms: _565  and  _567
REMARK  226  A    between atoms: _567  and  _568
REMARK  227  A    between atoms: _567  and  _570
REMARK  228  A    between atoms: _570  and  _571
REMARK  229  A    between atoms: _573  and  _575
REMARK  230  A    between atoms: _575  and  _576
REMARK  231  A    between atoms: _578  and  _580
REMARK  232  A    between atoms: _580  and  _581
REMARK  233  A    between atoms: _580  and  _583
REMARK  234  A    between atoms: _583  and  _584
REMARK  235  A    between atoms: _587  and  _589
REMARK  236  A    between atoms: _589  and  _590
REMARK  237  A    between atoms: _592  and  _594
REMARK  238  A    between atoms: _594  and  _595
REMARK  239  A    between atoms: _594  and  _597
REMARK  240  A    between atoms: _597  and  _598
REMARK  241  A    between atoms: _603  and  _605
REMARK  242  A    between atoms: _605  and  _606
REMARK  243  A    between atoms: _605  and  _608
REMARK  244  A    between atoms: _608  and  _609
REMARK  245  A    between atoms: _609  and  _610
REMARK  246  A    between atoms: _617  and  _618
REMARK  247  A    between atoms: _618  and  _634
REMARK  248  A    between atoms: _619  and  _621
REMARK  249  A    between atoms: _621  and  _622
REMARK  250  A    between atoms: _622  and  _623
REMARK  251  A    between atoms: _627  and  _629
REMARK  252  A    between atoms: _629  and  _630
REMARK  253  A    between atoms: _629  and  _637
REMARK  254  A    between atoms: _630  and  _631
REMARK  255  A    between atoms: _631  and  _632
REMARK  256  A    between atoms: _632  and  _633
REMARK  257  A    between atoms: _633  and  _634
REMARK  258  A    between atoms: _639  and  _641
REMARK  259  A    between atoms: _641  and  _642
REMARK  260  A    between atoms: _641  and  _644
REMARK  261  A    between atoms: _644  and  _645
REMARK  262  A    between atoms: _648  and  _650
REMARK  263  A    between atoms: _650  and  _651
REMARK  264  A    between atoms: _653  and  _655
REMARK  265  A    between atoms: _655  and  _656
REMARK  266  A    between atoms: _659  and  _661
REMARK  267  A    between atoms: _661  and  _662
REMARK  268  A    between atoms: _661  and  _664
REMARK  269  A    between atoms: _664  and  _665
REMARK  270  A    between atoms: _670  and  _671
REMARK                            x       y       z     vdW  Elec       q    Type
REMARK                         _______ _______ _______ _____ _____    ______ ____
ROOT
ATOM      1  O   HOH     1      33.657  12.760  26.376  0.00  0.00    +0.000 OA
ENDROOT
TORSDOF 0
REMARK  Name = ../refined-set-2016/3g2k/3g2k_pocket.pdb
REMARK  270 active torsions:
REMARK  status: ('A' for Active; 'I' for Inactive)
REMARK    1  A    between atoms: _1  and  _3
REMARK    2  A    between atoms: _3  and  _4
REMARK    3  A    between atoms: _3  and  _6
REMARK    4  A    between atoms: _6  and  _7
REMARK    5  A    between atoms: _12  and  _13
REMARK    6  A    between atoms: _15  and  _17
REMARK    7  A    between atoms: _17  and  _18
REMARK    8  A    between atoms: _17  and  _20
REMARK    9  A    between atoms: _20  and  _21
REMARK   10  A    between atoms: _24  and  _26
REMARK   11  A    between atoms: _26  and  _27
REMARK   12  A    between atoms: _26  and  _29
REMARK   13  A    between atoms: _29  and  _30
REMARK   14  A    between atoms: _30  and  _31
REMARK   15  A    between atoms: _34  and  _36
REMARK   16  A    between atoms: _36  and  _37
REMARK   17  A    between atoms: _36  and  _39
REMARK   18  A    between atoms: _39  and  _40
REMARK   19  A    between atoms: _45  and  _47
REMARK   20  A    between atoms: _47  and  _48
REMARK   21  A    between atoms: _50  and  _52
REMARK   22  A    between atoms: _52  and  _53
REMARK   23  A    between atoms: _55  and  _57
REMARK   24  A    between atoms: _57  and  _58
REMARK   25  A    between atoms: _57  and  _60
REMARK   26  A    between atoms: _60  and  _61
REMARK   27  A    between atoms: _64  and  _66
REMARK   28  A    between atoms: _66  and  _67
REMARK   29  A    between atoms: _69  and  _71
REMARK   30  A    between atoms: _71  and  _72
REMARK   31  A    between atoms: _71  and  _74
REMARK   32  A    between atoms: _74  and  _75
REMARK   33  A    between atoms: _75  and  _76
REMARK   34  A    between atoms: _76  and  _77
REMARK   35  A    between atoms: _86  and  _88
REMARK   36  A    between atoms: _88  and  _89
REMARK   37  A    between atoms: _88  and  _91
REMARK   38  A    between atoms: _91  and  _92
REMARK   39  A    between atoms: _95  and  _97
REMARK   40  A    between atoms: _97  and  _98
REMARK   41  A    between atoms: _101  and  _103
REMARK   42  A    between atoms: _103  and  _104
REMARK   43  A    between atoms: _103  and  _106
REMARK   44  A    between atoms: _106  and  _107
REMARK   45  A    between atoms: _113  and  _115
REMARK   46  A    between atoms: _115  and  _116
REMARK   47  A    between atoms: _115  and  _118
REMARK   48  A    between atoms: _118  and  _119
REMARK   49  A    between atoms: _124  and  _125
REMARK   50  A    between atoms: _128  and  _129
REMARK   51  A    between atoms: _134  and  _136
REMARK   52  A    between atoms: _136  and  _137
REMARK   53  A    between atoms: _136  and  _139
REMARK   54  A    between atoms: _139  and  _140
REMARK   55  A    between atoms: _145  and  _147
REMARK   56  A    between atoms: _147  and  _148
REMARK   57  A    between atoms: _147  and  _150
REMARK   58  A    between atoms: _150  and  _151
REMARK   59  A    between atoms: _154  and  _156
REMARK   60  A    between atoms: _156  and  _157
REMARK   61  A    between atoms: _156  and  _159
REMARK   62  A    between atoms: _159  and  _160
REMARK   63  A    between atoms: _165  and  _167
REMARK   64  A    between atoms: _167  and  _168
REMARK   65  A    between atoms: _167  and  _170
REMARK   66  A    between atoms: _170  and  _171
REMARK   67  A    between atoms: _177  and  _179
REMARK   68  A    between atoms: _179  and  _180
REMARK   69  A    between atoms: _179  and  _182
REMARK   70  A    between atoms: _182  and  _183
REMARK   71  A    between atoms: _189  and  _191
REMARK   72  A    between atoms: _191  and  _192
REMARK   73  A    between atoms: _191  and  _194
REMARK   74  A    between atoms: _194  and  _195
REMARK   75  A    between atoms: _195  and  _196
REMARK   76  A    between atoms: _199  and  _201
REMARK   77  A    between atoms: _201  and  _202
REMARK   78  A    between atoms: _201  and  _204
REMARK   79  A    between atoms: _204  and  _205
REMARK   80  A    between atoms: _205  and  _206
REMARK   81  A    between atoms: _206  and  _207
REMARK   82  A    between atoms: _216  and  _218
REMARK   83  A    between atoms: _218  and  _219
REMARK   84  A    between atoms: _218  and  _221
REMARK   85  A    between atoms: _221  and  _222
REMARK   86  A    between atoms: _222  and  _223
REMARK   87  A    between atoms: _226  and  _228
REMARK   88  A    between atoms: _228  and  _229
REMARK   89  A    between atoms: _228  and  _231
REMARK   90  A    between atoms: _231  and  _232
REMARK   91  A    between atoms: _237  and  _239
REMARK   92  A    between atoms: _239  and  _240
REMARK   93  A    between atoms: _239  and  _242
REMARK   94  A    between atoms: _242  and  _243
REMARK   95  A    between atoms: _246  and  _248
REMARK   96  A    between atoms: _248  and  _249
REMARK   97  A    between atoms: _248  and  _251
REMARK   98  A    between atoms: _251  and  _252
REMARK   99  A    between atoms: _255  and  _257
REMARK  100  A    between atoms: _257  and  _258
REMARK  101  A    between atoms: _257  and  _260
REMARK  102  A    between atoms: _260  and  _261
REMARK  103  A    between atoms: _266  and  _268
REMARK  104  A    between atoms: _268  and  _269
REMARK  105  A    between atoms: _268  and  _271
REMARK  106  A    between atoms: _271  and  _272
REMARK  107  A    between atoms: _277  and  _278
REMARK  108  A    between atoms: _280  and  _282
REMARK  109  A    between atoms: _282  and  _283
REMARK  110  A    between atoms: _282  and  _285
REMARK  111  A    between atoms: _285  and  _286
REMARK  112  A    between atoms: _289  and  _291
REMARK  113  A    between atoms: _291  and  _292
REMARK  114  A    between atoms: _291  and  _294
REMARK  115  A    between atoms: _294  and  _295
REMARK  116  A    between atoms: _300  and  _302
REMARK  117  A    between atoms: _302  and  _303
REMARK  118  A    between atoms: _302  and  _305
REMARK  119  A    between atoms: _305  and  _306
REMARK  120  A    between atoms: _311  and  _313
REMARK  121  A    between atoms: _313  and  _314
REMARK  122  A    between atoms: _313  and  _316
REMARK  123  A    between atoms: _316  and  _317
REMARK  124  A    between atoms: _320  and  _322
REMARK  125  A    between atoms: _322  and  _323
REMARK  126  A    between atoms: _322  and  _325
REMARK  127  A    between atoms: _328  and  _330
REMARK  128  A    between atoms: _330  and  _331
REMARK  129  A    between atoms: _330  and  _333
REMARK  130  A    between atoms: _333  and  _334
REMARK  131  A    between atoms: _337  and  _339
REMARK  132  A    between atoms: _339  and  _340
REMARK  133  A    between atoms: _339  and  _342
REMARK  134  A    between atoms: _342  and  _343
REMARK  135  A    between atoms: _343  and  _344
REMARK  136  A    between atoms: _347  and  _349
REMARK  137  A    between atoms: _349  and  _350
REMARK  138  A    between atoms: _353  and  _355
REMARK  139  A    between atoms: _355  and  _356
REMARK  140  A    between atoms: _355  and  _358
REMARK  141  A    between atoms: _358  and  _359
REMARK  142  A    between atoms: _362  and  _364
REMARK  143  A    between atoms: _364  and  _365
REMARK  144  A    between atoms: _364  and  _367
REMARK  145  A    between atoms: _367  and  _368
REMARK  146  A    between atoms: _368  and  _369
REMARK  147  A    between atoms: _372  and  _374
REMARK  148  A    between atoms: _374  and  _375
REMARK  149  A    between atoms: _374  and  _377
REMARK  150  A    between atoms: _377  and  _378
REMARK  151  A    between atoms: _378  and  _379
REMARK  152  A    between atoms: _379  and  _380
REMARK  153  A    between atoms: _389  and  _391
REMARK  154  A    between atoms: _391  and  _392
REMARK  155  A    between atoms: _391  and  _394
REMARK  156  A    between atoms: _394  and  _395
REMARK  157  A    between atoms: _405  and  _407
REMARK  158  A    between atoms: _407  and  _408
REMARK  159  A    between atoms: _407  and  _410
REMARK  160  A    between atoms: _410  and  _411
REMARK  161  A    between atoms: _416  and  _418
REMARK  162  A    between atoms: _418  and  _419
REMARK  163  A    between atoms: _421  and  _423
REMARK  164  A    between atoms: _423  and  _424
REMARK  165  A    between atoms: _423  and  _426
REMARK  166  A    between atoms: _429  and  _431
REMARK  167  A    between atoms: _431  and  _432
REMARK  168  A    between atoms: _435  and  _437
REMARK  169  A    between atoms: _437  and  _438
REMARK  170  A    between atoms: _437  and  _440
REMARK  171  A    between atoms: _440  and  _441
REMARK  172  A    between atoms: _446  and  _448
REMARK  173  A    between atoms: _448  and  _449
REMARK  174  A    between atoms: _448  and  _451
REMARK  175  A    between atoms: _451  and  _452
REMARK  176  A    between atoms: _452  and  _453
REMARK  177  A    between atoms: _453  and  _454
REMARK  178  A    between atoms: _454  and  _455
REMARK  179  A    between atoms: _459  and  _461
REMARK  180  A    between atoms: _461  and  _462
REMARK  181  A    between atoms: _461  and  _464
REMARK  182  A    between atoms: _464  and  _465
REMARK  183  A    between atoms: _470  and  _472
REMARK  184  A    between atoms: _472  and  _473
REMARK  185  A    between atoms: _475  and  _477
REMARK  186  A    between atoms: _477  and  _478
REMARK  187  A    between atoms: _477  and  _480
REMARK  188  A    between atoms: _480  and  _481
REMARK  189  A    between atoms: _481  and  _482
REMARK  190  A    between atoms: _482  and  _483
REMARK  191  A    between atoms: _483  and  _484
REMARK  192  A    between atoms: _488  and  _490
REMARK  193  A    between atoms: _490  and  _491
REMARK  194  A    between atoms: _490  and  _493
REMARK  195  A    between atoms: _493  and  _494
REMARK  196  A    between atoms: _494  and  _495
REMARK  197  A    between atoms: _495  and  _496
REMARK  198  A    between atoms: _505  and  _507
REMARK  199  A    between atoms: _507  and  _508
REMARK  200  A    between atoms: _507  and  _510
REMARK  201  A    between atoms: _510  and  _511
REMARK  202  A    between atoms: _516  and  _517
REMARK  203  A    between atoms: _519  and  _521
REMARK  204  A    between atoms: _521  and  _522
REMARK  205  A    between atoms: _521  and  _524
REMARK  206  A    between atoms: _524  and  _525
REMARK  207  A    between atoms: _525  and  _526
REMARK  208  A    between atoms: _526  and  _527
REMARK  209  A    between atoms: _527  and  _528
REMARK  210  A    between atoms: _532  and  _534
REMARK  211  A    between atoms: _534  and  _535
REMARK  212  A    between atoms: _534  and  _537
REMARK  213  A    between atoms: _537  and  _538
REMARK  214  A    between atoms: _540  and  _542
REMARK  215  A    between atoms: _542  and  _543
REMARK  216  A    between atoms: _542  and  _545
REMARK  217  A    between atoms: _545  and  _546
REMARK  218  A    between atoms: _549  and  _551
REMARK  219  A    between atoms: _551  and  _552
REMARK  220  A    between atoms: _551  and  _554
REMARK  221  A    between atoms: _554  and  _555
REMARK  222  A    between atoms: _555  and  _556
REMARK  223  A    between atoms: _559  and  _561
REMARK  224  A    between atoms: _561  and  _562
REMARK  225  A    between atoms: _565  and  _567
REMARK  226  A    between atoms: _567  and  _568
REMARK  227  A    between atoms: _567  and  _570
REMARK  228  A    between atoms: _570  and  _571
REMARK  229  A    between atoms: _573  and  _575
REMARK  230  A    between atoms: _575  and  _576
REMARK  231  A    between atoms: _578  and  _580
REMARK  232  A    between atoms: _580  and  _581
REMARK  233  A    between atoms: _580  and  _583
REMARK  234  A    between atoms: _583  and  _584
REMARK  235  A    between atoms: _587  and  _589
REMARK  236  A    between atoms: _589  and  _590
REMARK  237  A    between atoms: _592  and  _594
REMARK  238  A    between atoms: _594  and  _595
REMARK  239  A    between atoms: _594  and  _597
REMARK  240  A    between atoms: _597  and  _598
REMARK  241  A    between atoms: _603  and  _605
REMARK  242  A    between atoms: _605  and  _606
REMARK  243  A    between atoms: _605  and  _608
REMARK  244  A    between atoms: _608  and  _609
REMARK  245  A    between atoms: _609  and  _610
REMARK  246  A    between atoms: _617  and  _618
REMARK  247  A    between atoms: _618  and  _634
REMARK  248  A    between atoms: _619  and  _621
REMARK  249  A    between atoms: _621  and  _622
REMARK  250  A    between atoms: _622  and  _623
REMARK  251  A    between atoms: _627  and  _629
REMARK  252  A    between atoms: _629  and  _630
REMARK  253  A    between atoms: _629  and  _637
REMARK  254  A    between atoms: _630  and  _631
REMARK  255  A    between atoms: _631  and  _632
REMARK  256  A    between atoms: _632  and  _633
REMARK  257  A    between atoms: _633  and  _634
REMARK  258  A    between atoms: _639  and  _641
REMARK  259  A    between atoms: _641  and  _642
REMARK  260  A    between atoms: _641  and  _644
REMARK  261  A    between atoms: _644  and  _645
REMARK  262  A    between atoms: _648  and  _650
REMARK  263  A    between atoms: _650  and  _651
REMARK  264  A    between atoms: _653  and  _655
REMARK  265  A    between atoms: _655  and  _656
REMARK  266  A    between atoms: _659  and  _661
REMARK  267  A    between atoms: _661  and  _662
REMARK  268  A    between atoms: _661  and  _664
REMARK  269  A    between atoms: _664  and  _665
REMARK  270  A    between atoms: _670  and  _671
REMARK                            x       y       z     vdW  Elec       q    Type
REMARK                         _______ _______ _______ _____ _____    ______ ____
ROOT
ATOM      1  O   HOH     1      36.766  22.337  18.075  0.00  0.00    +0.000 OA
ENDROOT
TORSDOF 0
REMARK  Name = ../refined-set-2016/3g2k/3g2k_pocket.pdb
REMARK  270 active torsions:
REMARK  status: ('A' for Active; 'I' for Inactive)
REMARK    1  A    between atoms: _1  and  _3
REMARK    2  A    between atoms: _3  and  _4
REMARK    3  A    between atoms: _3  and  _6
REMARK    4  A    between atoms: _6  and  _7
REMARK    5  A    between atoms: _12  and  _13
REMARK    6  A    between atoms: _15  and  _17
REMARK    7  A    between atoms: _17  and  _18
REMARK    8  A    between atoms: _17  and  _20
REMARK    9  A    between atoms: _20  and  _21
REMARK   10  A    between atoms: _24  and  _26
REMARK   11  A    between atoms: _26  and  _27
REMARK   12  A    between atoms: _26  and  _29
REMARK   13  A    between atoms: _29  and  _30
REMARK   14  A    between atoms: _30  and  _31
REMARK   15  A    between atoms: _34  and  _36
REMARK   16  A    between atoms: _36  and  _37
REMARK   17  A    between atoms: _36  and  _39
REMARK   18  A    between atoms: _39  and  _40
REMARK   19  A    between atoms: _45  and  _47
REMARK   20  A    between atoms: _47  and  _48
REMARK   21  A    between atoms: _50  and  _52
REMARK   22  A    between atoms: _52  and  _53
REMARK   23  A    between atoms: _55  and  _57
REMARK   24  A    between atoms: _57  and  _58
REMARK   25  A    between atoms: _57  and  _60
REMARK   26  A    between atoms: _60  and  _61
REMARK   27  A    between atoms: _64  and  _66
REMARK   28  A    between atoms: _66  and  _67
REMARK   29  A    between atoms: _69  and  _71
REMARK   30  A    between atoms: _71  and  _72
REMARK   31  A    between atoms: _71  and  _74
REMARK   32  A    between atoms: _74  and  _75
REMARK   33  A    between atoms: _75  and  _76
REMARK   34  A    between atoms: _76  and  _77
REMARK   35  A    between atoms: _86  and  _88
REMARK   36  A    between atoms: _88  and  _89
REMARK   37  A    between atoms: _88  and  _91
REMARK   38  A    between atoms: _91  and  _92
REMARK   39  A    between atoms: _95  and  _97
REMARK   40  A    between atoms: _97  and  _98
REMARK   41  A    between atoms: _101  and  _103
REMARK   42  A    between atoms: _103  and  _104
REMARK   43  A    between atoms: _103  and  _106
REMARK   44  A    between atoms: _106  and  _107
REMARK   45  A    between atoms: _113  and  _115
REMARK   46  A    between atoms: _115  and  _116
REMARK   47  A    between atoms: _115  and  _118
REMARK   48  A    between atoms: _118  and  _119
REMARK   49  A    between atoms: _124  and  _125
REMARK   50  A    between atoms: _128  and  _129
REMARK   51  A    between atoms: _134  and  _136
REMARK   52  A    between atoms: _136  and  _137
REMARK   53  A    between atoms: _136  and  _139
REMARK   54  A    between atoms: _139  and  _140
REMARK   55  A    between atoms: _145  and  _147
REMARK   56  A    between atoms: _147  and  _148
REMARK   57  A    between atoms: _147  and  _150
REMARK   58  A    between atoms: _150  and  _151
REMARK   59  A    between atoms: _154  and  _156
REMARK   60  A    between atoms: _156  and  _157
REMARK   61  A    between atoms: _156  and  _159
REMARK   62  A    between atoms: _159  and  _160
REMARK   63  A    between atoms: _165  and  _167
REMARK   64  A    between atoms: _167  and  _168
REMARK   65  A    between atoms: _167  and  _170
REMARK   66  A    between atoms: _170  and  _171
REMARK   67  A    between atoms: _177  and  _179
REMARK   68  A    between atoms: _179  and  _180
REMARK   69  A    between atoms: _179  and  _182
REMARK   70  A    between atoms: _182  and  _183
REMARK   71  A    between atoms: _189  and  _191
REMARK   72  A    between atoms: _191  and  _192
REMARK   73  A    between atoms: _191  and  _194
REMARK   74  A    between atoms: _194  and  _195
REMARK   75  A    between atoms: _195  and  _196
REMARK   76  A    between atoms: _199  and  _201
REMARK   77  A    between atoms: _201  and  _202
REMARK   78  A    between atoms: _201  and  _204
REMARK   79  A    between atoms: _204  and  _205
REMARK   80  A    between atoms: _205  and  _206
REMARK   81  A    between atoms: _206  and  _207
REMARK   82  A    between atoms: _216  and  _218
REMARK   83  A    between atoms: _218  and  _219
REMARK   84  A    between atoms: _218  and  _221
REMARK   85  A    between atoms: _221  and  _222
REMARK   86  A    between atoms: _222  and  _223
REMARK   87  A    between atoms: _226  and  _228
REMARK   88  A    between atoms: _228  and  _229
REMARK   89  A    between atoms: _228  and  _231
REMARK   90  A    between atoms: _231  and  _232
REMARK   91  A    between atoms: _237  and  _239
REMARK   92  A    between atoms: _239  and  _240
REMARK   93  A    between atoms: _239  and  _242
REMARK   94  A    between atoms: _242  and  _243
REMARK   95  A    between atoms: _246  and  _248
REMARK   96  A    between atoms: _248  and  _249
REMARK   97  A    between atoms: _248  and  _251
REMARK   98  A    between atoms: _251  and  _252
REMARK   99  A    between atoms: _255  and  _257
REMARK  100  A    between atoms: _257  and  _258
REMARK  101  A    between atoms: _257  and  _260
REMARK  102  A    between atoms: _260  and  _261
REMARK  103  A    between atoms: _266  and  _268
REMARK  104  A    between atoms: _268  and  _269
REMARK  105  A    between atoms: _268  and  _271
REMARK  106  A    between atoms: _271  and  _272
REMARK  107  A    between atoms: _277  and  _278
REMARK  108  A    between atoms: _280  and  _282
REMARK  109  A    between atoms: _282  and  _283
REMARK  110  A    between atoms: _282  and  _285
REMARK  111  A    between atoms: _285  and  _286
REMARK  112  A    between atoms: _289  and  _291
REMARK  113  A    between atoms: _291  and  _292
REMARK  114  A    between atoms: _291  and  _294
REMARK  115  A    between atoms: _294  and  _295
REMARK  116  A    between atoms: _300  and  _302
REMARK  117  A    between atoms: _302  and  _303
REMARK  118  A    between atoms: _302  and  _305
REMARK  119  A    between atoms: _305  and  _306
REMARK  120  A    between atoms: _311  and  _313
REMARK  121  A    between atoms: _313  and  _314
REMARK  122  A    between atoms: _313  and  _316
REMARK  123  A    between atoms: _316  and  _317
REMARK  124  A    between atoms: _320  and  _322
REMARK  125  A    between atoms: _322  and  _323
REMARK  126  A    between atoms: _322  and  _325
REMARK  127  A    between atoms: _328  and  _330
REMARK  128  A    between atoms: _330  and  _331
REMARK  129  A    between atoms: _330  and  _333
REMARK  130  A    between atoms: _333  and  _334
REMARK  131  A    between atoms: _337  and  _339
REMARK  132  A    between atoms: _339  and  _340
REMARK  133  A    between atoms: _339  and  _342
REMARK  134  A    between atoms: _342  and  _343
REMARK  135  A    between atoms: _343  and  _344
REMARK  136  A    between atoms: _347  and  _349
REMARK  137  A    between atoms: _349  and  _350
REMARK  138  A    between atoms: _353  and  _355
REMARK  139  A    between atoms: _355  and  _356
REMARK  140  A    between atoms: _355  and  _358
REMARK  141  A    between atoms: _358  and  _359
REMARK  142  A    between atoms: _362  and  _364
REMARK  143  A    between atoms: _364  and  _365
REMARK  144  A    between atoms: _364  and  _367
REMARK  145  A    between atoms: _367  and  _368
REMARK  146  A    between atoms: _368  and  _369
REMARK  147  A    between atoms: _372  and  _374
REMARK  148  A    between atoms: _374  and  _375
REMARK  149  A    between atoms: _374  and  _377
REMARK  150  A    between atoms: _377  and  _378
REMARK  151  A    between atoms: _378  and  _379
REMARK  152  A    between atoms: _379  and  _380
REMARK  153  A    between atoms: _389  and  _391
REMARK  154  A    between atoms: _391  and  _392
REMARK  155  A    between atoms: _391  and  _394
REMARK  156  A    between atoms: _394  and  _395
REMARK  157  A    between atoms: _405  and  _407
REMARK  158  A    between atoms: _407  and  _408
REMARK  159  A    between atoms: _407  and  _410
REMARK  160  A    between atoms: _410  and  _411
REMARK  161  A    between atoms: _416  and  _418
REMARK  162  A    between atoms: _418  and  _419
REMARK  163  A    between atoms: _421  and  _423
REMARK  164  A    between atoms: _423  and  _424
REMARK  165  A    between atoms: _423  and  _426
REMARK  166  A    between atoms: _429  and  _431
REMARK  167  A    between atoms: _431  and  _432
REMARK  168  A    between atoms: _435  and  _437
REMARK  169  A    between atoms: _437  and  _438
REMARK  170  A    between atoms: _437  and  _440
REMARK  171  A    between atoms: _440  and  _441
REMARK  172  A    between atoms: _446  and  _448
REMARK  173  A    between atoms: _448  and  _449
REMARK  174  A    between atoms: _448  and  _451
REMARK  175  A    between atoms: _451  and  _452
REMARK  176  A    between atoms: _452  and  _453
REMARK  177  A    between atoms: _453  and  _454
REMARK  178  A    between atoms: _454  and  _455
REMARK  179  A    between atoms: _459  and  _461
REMARK  180  A    between atoms: _461  and  _462
REMARK  181  A    between atoms: _461  and  _464
REMARK  182  A    between atoms: _464  and  _465
REMARK  183  A    between atoms: _470  and  _472
REMARK  184  A    between atoms: _472  and  _473
REMARK  185  A    between atoms: _475  and  _477
REMARK  186  A    between atoms: _477  and  _478
REMARK  187  A    between atoms: _477  and  _480
REMARK  188  A    between atoms: _480  and  _481
REMARK  189  A    between atoms: _481  and  _482
REMARK  190  A    between atoms: _482  and  _483
REMARK  191  A    between atoms: _483  and  _484
REMARK  192  A    between atoms: _488  and  _490
REMARK  193  A    between atoms: _490  and  _491
REMARK  194  A    between atoms: _490  and  _493
REMARK  195  A    between atoms: _493  and  _494
REMARK  196  A    between atoms: _494  and  _495
REMARK  197  A    between atoms: _495  and  _496
REMARK  198  A    between atoms: _505  and  _507
REMARK  199  A    between atoms: _507  and  _508
REMARK  200  A    between atoms: _507  and  _510
REMARK  201  A    between atoms: _510  and  _511
REMARK  202  A    between atoms: _516  and  _517
REMARK  203  A    between atoms: _519  and  _521
REMARK  204  A    between atoms: _521  and  _522
REMARK  205  A    between atoms: _521  and  _524
REMARK  206  A    between atoms: _524  and  _525
REMARK  207  A    between atoms: _525  and  _526
REMARK  208  A    between atoms: _526  and  _527
REMARK  209  A    between atoms: _527  and  _528
REMARK  210  A    between atoms: _532  and  _534
REMARK  211  A    between atoms: _534  and  _535
REMARK  212  A    between atoms: _534  and  _537
REMARK  213  A    between atoms: _537  and  _538
REMARK  214  A    between atoms: _540  and  _542
REMARK  215  A    between atoms: _542  and  _543
REMARK  216  A    between atoms: _542  and  _545
REMARK  217  A    between atoms: _545  and  _546
REMARK  218  A    between atoms: _549  and  _551
REMARK  219  A    between atoms: _551  and  _552
REMARK  220  A    between atoms: _551  and  _554
REMARK  221  A    between atoms: _554  and  _555
REMARK  222  A    between atoms: _555  and  _556
REMARK  223  A    between atoms: _559  and  _561
REMARK  224  A    between atoms: _561  and  _562
REMARK  225  A    between atoms: _565  and  _567
REMARK  226  A    between atoms: _567  and  _568
REMARK  227  A    between atoms: _567  and  _570
REMARK  228  A    between atoms: _570  and  _571
REMARK  229  A    between atoms: _573  and  _575
REMARK  230  A    between atoms: _575  and  _576
REMARK  231  A    between atoms: _578  and  _580
REMARK  232  A    between atoms: _580  and  _581
REMARK  233  A    between atoms: _580  and  _583
REMARK  234  A    between atoms: _583  and  _584
REMARK  235  A    between atoms: _587  and  _589
REMARK  236  A    between atoms: _589  and  _590
REMARK  237  A    between atoms: _592  and  _594
REMARK  238  A    between atoms: _594  and  _595
REMARK  239  A    between atoms: _594  and  _597
REMARK  240  A    between atoms: _597  and  _598
REMARK  241  A    between atoms: _603  and  _605
REMARK  242  A    between atoms: _605  and  _606
REMARK  243  A    between atoms: _605  and  _608
REMARK  244  A    between atoms: _608  and  _609
REMARK  245  A    between atoms: _609  and  _610
REMARK  246  A    between atoms: _617  and  _618
REMARK  247  A    between atoms: _618  and  _634
REMARK  248  A    between atoms: _619  and  _621
REMARK  249  A    between atoms: _621  and  _622
REMARK  250  A    between atoms: _622  and  _623
REMARK  251  A    between atoms: _627  and  _629
REMARK  252  A    between atoms: _629  and  _630
REMARK  253  A    between atoms: _629  and  _637
REMARK  254  A    between atoms: _630  and  _631
REMARK  255  A    between atoms: _631  and  _632
REMARK  256  A    between atoms: _632  and  _633
REMARK  257  A    between atoms: _633  and  _634
REMARK  258  A    between atoms: _639  and  _641
REMARK  259  A    between atoms: _641  and  _642
REMARK  260  A    between atoms: _641  and  _644
REMARK  261  A    between atoms: _644  and  _645
REMARK  262  A    between atoms: _648  and  _650
REMARK  263  A    between atoms: _650  and  _651
REMARK  264  A    between atoms: _653  and  _655
REMARK  265  A    between atoms: _655  and  _656
REMARK  266  A    between atoms: _659  and  _661
REMARK  267  A    between atoms: _661  and  _662
REMARK  268  A    between atoms: _661  and  _664
REMARK  269  A    between atoms: _664  and  _665
REMARK  270  A    between atoms: _670  and  _671
REMARK                            x       y       z     vdW  Elec       q    Type
REMARK                         _______ _______ _______ _____ _____    ______ ____
ROOT
ATOM      1  O   HOH     1      39.122  23.039  19.837  0.00  0.00    +0.000 OA
ENDROOT
TORSDOF 0
REMARK  Name = ../refined-set-2016/3g2k/3g2k_pocket.pdb
REMARK  270 active torsions:
REMARK  status: ('A' for Active; 'I' for Inactive)
REMARK    1  A    between atoms: _1  and  _3
REMARK    2  A    between atoms: _3  and  _4
REMARK    3  A    between atoms: _3  and  _6
REMARK    4  A    between atoms: _6  and  _7
REMARK    5  A    between atoms: _12  and  _13
REMARK    6  A    between atoms: _15  and  _17
REMARK    7  A    between atoms: _17  and  _18
REMARK    8  A    between atoms: _17  and  _20
REMARK    9  A    between atoms: _20  and  _21
REMARK   10  A    between atoms: _24  and  _26
REMARK   11  A    between atoms: _26  and  _27
REMARK   12  A    between atoms: _26  and  _29
REMARK   13  A    between atoms: _29  and  _30
REMARK   14  A    between atoms: _30  and  _31
REMARK   15  A    between atoms: _34  and  _36
REMARK   16  A    between atoms: _36  and  _37
REMARK   17  A    between atoms: _36  and  _39
REMARK   18  A    between atoms: _39  and  _40
REMARK   19  A    between atoms: _45  and  _47
REMARK   20  A    between atoms: _47  and  _48
REMARK   21  A    between atoms: _50  and  _52
REMARK   22  A    between atoms: _52  and  _53
REMARK   23  A    between atoms: _55  and  _57
REMARK   24  A    between atoms: _57  and  _58
REMARK   25  A    between atoms: _57  and  _60
REMARK   26  A    between atoms: _60  and  _61
REMARK   27  A    between atoms: _64  and  _66
REMARK   28  A    between atoms: _66  and  _67
REMARK   29  A    between atoms: _69  and  _71
REMARK   30  A    between atoms: _71  and  _72
REMARK   31  A    between atoms: _71  and  _74
REMARK   32  A    between atoms: _74  and  _75
REMARK   33  A    between atoms: _75  and  _76
REMARK   34  A    between atoms: _76  and  _77
REMARK   35  A    between atoms: _86  and  _88
REMARK   36  A    between atoms: _88  and  _89
REMARK   37  A    between atoms: _88  and  _91
REMARK   38  A    between atoms: _91  and  _92
REMARK   39  A    between atoms: _95  and  _97
REMARK   40  A    between atoms: _97  and  _98
REMARK   41  A    between atoms: _101  and  _103
REMARK   42  A    between atoms: _103  and  _104
REMARK   43  A    between atoms: _103  and  _106
REMARK   44  A    between atoms: _106  and  _107
REMARK   45  A    between atoms: _113  and  _115
REMARK   46  A    between atoms: _115  and  _116
REMARK   47  A    between atoms: _115  and  _118
REMARK   48  A    between atoms: _118  and  _119
REMARK   49  A    between atoms: _124  and  _125
REMARK   50  A    between atoms: _128  and  _129
REMARK   51  A    between atoms: _134  and  _136
REMARK   52  A    between atoms: _136  and  _137
REMARK   53  A    between atoms: _136  and  _139
REMARK   54  A    between atoms: _139  and  _140
REMARK   55  A    between atoms: _145  and  _147
REMARK   56  A    between atoms: _147  and  _148
REMARK   57  A    between atoms: _147  and  _150
REMARK   58  A    between atoms: _150  and  _151
REMARK   59  A    between atoms: _154  and  _156
REMARK   60  A    between atoms: _156  and  _157
REMARK   61  A    between atoms: _156  and  _159
REMARK   62  A    between atoms: _159  and  _160
REMARK   63  A    between atoms: _165  and  _167
REMARK   64  A    between atoms: _167  and  _168
REMARK   65  A    between atoms: _167  and  _170
REMARK   66  A    between atoms: _170  and  _171
REMARK   67  A    between atoms: _177  and  _179
REMARK   68  A    between atoms: _179  and  _180
REMARK   69  A    between atoms: _179  and  _182
REMARK   70  A    between atoms: _182  and  _183
REMARK   71  A    between atoms: _189  and  _191
REMARK   72  A    between atoms: _191  and  _192
REMARK   73  A    between atoms: _191  and  _194
REMARK   74  A    between atoms: _194  and  _195
REMARK   75  A    between atoms: _195  and  _196
REMARK   76  A    between atoms: _199  and  _201
REMARK   77  A    between atoms: _201  and  _202
REMARK   78  A    between atoms: _201  and  _204
REMARK   79  A    between atoms: _204  and  _205
REMARK   80  A    between atoms: _205  and  _206
REMARK   81  A    between atoms: _206  and  _207
REMARK   82  A    between atoms: _216  and  _218
REMARK   83  A    between atoms: _218  and  _219
REMARK   84  A    between atoms: _218  and  _221
REMARK   85  A    between atoms: _221  and  _222
REMARK   86  A    between atoms: _222  and  _223
REMARK   87  A    between atoms: _226  and  _228
REMARK   88  A    between atoms: _228  and  _229
REMARK   89  A    between atoms: _228  and  _231
REMARK   90  A    between atoms: _231  and  _232
REMARK   91  A    between atoms: _237  and  _239
REMARK   92  A    between atoms: _239  and  _240
REMARK   93  A    between atoms: _239  and  _242
REMARK   94  A    between atoms: _242  and  _243
REMARK   95  A    between atoms: _246  and  _248
REMARK   96  A    between atoms: _248  and  _249
REMARK   97  A    between atoms: _248  and  _251
REMARK   98  A    between atoms: _251  and  _252
REMARK   99  A    between atoms: _255  and  _257
REMARK  100  A    between atoms: _257  and  _258
REMARK  101  A    between atoms: _257  and  _260
REMARK  102  A    between atoms: _260  and  _261
REMARK  103  A    between atoms: _266  and  _268
REMARK  104  A    between atoms: _268  and  _269
REMARK  105  A    between atoms: _268  and  _271
REMARK  106  A    between atoms: _271  and  _272
REMARK  107  A    between atoms: _277  and  _278
REMARK  108  A    between atoms: _280  and  _282
REMARK  109  A    between atoms: _282  and  _283
REMARK  110  A    between atoms: _282  and  _285
REMARK  111  A    between atoms: _285  and  _286
REMARK  112  A    between atoms: _289  and  _291
REMARK  113  A    between atoms: _291  and  _292
REMARK  114  A    between atoms: _291  and  _294
REMARK  115  A    between atoms: _294  and  _295
REMARK  116  A    between atoms: _300  and  _302
REMARK  117  A    between atoms: _302  and  _303
REMARK  118  A    between atoms: _302  and  _305
REMARK  119  A    between atoms: _305  and  _306
REMARK  120  A    between atoms: _311  and  _313
REMARK  121  A    between atoms: _313  and  _314
REMARK  122  A    between atoms: _313  and  _316
REMARK  123  A    between atoms: _316  and  _317
REMARK  124  A    between atoms: _320  and  _322
REMARK  125  A    between atoms: _322  and  _323
REMARK  126  A    between atoms: _322  and  _325
REMARK  127  A    between atoms: _328  and  _330
REMARK  128  A    between atoms: _330  and  _331
REMARK  129  A    between atoms: _330  and  _333
REMARK  130  A    between atoms: _333  and  _334
REMARK  131  A    between atoms: _337  and  _339
REMARK  132  A    between atoms: _339  and  _340
REMARK  133  A    between atoms: _339  and  _342
REMARK  134  A    between atoms: _342  and  _343
REMARK  135  A    between atoms: _343  and  _344
REMARK  136  A    between atoms: _347  and  _349
REMARK  137  A    between atoms: _349  and  _350
REMARK  138  A    between atoms: _353  and  _355
REMARK  139  A    between atoms: _355  and  _356
REMARK  140  A    between atoms: _355  and  _358
REMARK  141  A    between atoms: _358  and  _359
REMARK  142  A    between atoms: _362  and  _364
REMARK  143  A    between atoms: _364  and  _365
REMARK  144  A    between atoms: _364  and  _367
REMARK  145  A    between atoms: _367  and  _368
REMARK  146  A    between atoms: _368  and  _369
REMARK  147  A    between atoms: _372  and  _374
REMARK  148  A    between atoms: _374  and  _375
REMARK  149  A    between atoms: _374  and  _377
REMARK  150  A    between atoms: _377  and  _378
REMARK  151  A    between atoms: _378  and  _379
REMARK  152  A    between atoms: _379  and  _380
REMARK  153  A    between atoms: _389  and  _391
REMARK  154  A    between atoms: _391  and  _392
REMARK  155  A    between atoms: _391  and  _394
REMARK  156  A    between atoms: _394  and  _395
REMARK  157  A    between atoms: _405  and  _407
REMARK  158  A    between atoms: _407  and  _408
REMARK  159  A    between atoms: _407  and  _410
REMARK  160  A    between atoms: _410  and  _411
REMARK  161  A    between atoms: _416  and  _418
REMARK  162  A    between atoms: _418  and  _419
REMARK  163  A    between atoms: _421  and  _423
REMARK  164  A    between atoms: _423  and  _424
REMARK  165  A    between atoms: _423  and  _426
REMARK  166  A    between atoms: _429  and  _431
REMARK  167  A    between atoms: _431  and  _432
REMARK  168  A    between atoms: _435  and  _437
REMARK  169  A    between atoms: _437  and  _438
REMARK  170  A    between atoms: _437  and  _440
REMARK  171  A    between atoms: _440  and  _441
REMARK  172  A    between atoms: _446  and  _448
REMARK  173  A    between atoms: _448  and  _449
REMARK  174  A    between atoms: _448  and  _451
REMARK  175  A    between atoms: _451  and  _452
REMARK  176  A    between atoms: _452  and  _453
REMARK  177  A    between atoms: _453  and  _454
REMARK  178  A    between atoms: _454  and  _455
REMARK  179  A    between atoms: _459  and  _461
REMARK  180  A    between atoms: _461  and  _462
REMARK  181  A    between atoms: _461  and  _464
REMARK  182  A    between atoms: _464  and  _465
REMARK  183  A    between atoms: _470  and  _472
REMARK  184  A    between atoms: _472  and  _473
REMARK  185  A    between atoms: _475  and  _477
REMARK  186  A    between atoms: _477  and  _478
REMARK  187  A    between atoms: _477  and  _480
REMARK  188  A    between atoms: _480  and  _481
REMARK  189  A    between atoms: _481  and  _482
REMARK  190  A    between atoms: _482  and  _483
REMARK  191  A    between atoms: _483  and  _484
REMARK  192  A    between atoms: _488  and  _490
REMARK  193  A    between atoms: _490  and  _491
REMARK  194  A    between atoms: _490  and  _493
REMARK  195  A    between atoms: _493  and  _494
REMARK  196  A    between atoms: _494  and  _495
REMARK  197  A    between atoms: _495  and  _496
REMARK  198  A    between atoms: _505  and  _507
REMARK  199  A    between atoms: _507  and  _508
REMARK  200  A    between atoms: _507  and  _510
REMARK  201  A    between atoms: _510  and  _511
REMARK  202  A    between atoms: _516  and  _517
REMARK  203  A    between atoms: _519  and  _521
REMARK  204  A    between atoms: _521  and  _522
REMARK  205  A    between atoms: _521  and  _524
REMARK  206  A    between atoms: _524  and  _525
REMARK  207  A    between atoms: _525  and  _526
REMARK  208  A    between atoms: _526  and  _527
REMARK  209  A    between atoms: _527  and  _528
REMARK  210  A    between atoms: _532  and  _534
REMARK  211  A    between atoms: _534  and  _535
REMARK  212  A    between atoms: _534  and  _537
REMARK  213  A    between atoms: _537  and  _538
REMARK  214  A    between atoms: _540  and  _542
REMARK  215  A    between atoms: _542  and  _543
REMARK  216  A    between atoms: _542  and  _545
REMARK  217  A    between atoms: _545  and  _546
REMARK  218  A    between atoms: _549  and  _551
REMARK  219  A    between atoms: _551  and  _552
REMARK  220  A    between atoms: _551  and  _554
REMARK  221  A    between atoms: _554  and  _555
REMARK  222  A    between atoms: _555  and  _556
REMARK  223  A    between atoms: _559  and  _561
REMARK  224  A    between atoms: _561  and  _562
REMARK  225  A    between atoms: _565  and  _567
REMARK  226  A    between atoms: _567  and  _568
REMARK  227  A    between atoms: _567  and  _570
REMARK  228  A    between atoms: _570  and  _571
REMARK  229  A    between atoms: _573  and  _575
REMARK  230  A    between atoms: _575  and  _576
REMARK  231  A    between atoms: _578  and  _580
REMARK  232  A    between atoms: _580  and  _581
REMARK  233  A    between atoms: _580  and  _583
REMARK  234  A    between atoms: _583  and  _584
REMARK  235  A    between atoms: _587  and  _589
REMARK  236  A    between atoms: _589  and  _590
REMARK  237  A    between atoms: _592  and  _594
REMARK  238  A    between atoms: _594  and  _595
REMARK  239  A    between atoms: _594  and  _597
REMARK  240  A    between atoms: _597  and  _598
REMARK  241  A    between atoms: _603  and  _605
REMARK  242  A    between atoms: _605  and  _606
REMARK  243  A    between atoms: _605  and  _608
REMARK  244  A    between atoms: _608  and  _609
REMARK  245  A    between atoms: _609  and  _610
REMARK  246  A    between atoms: _617  and  _618
REMARK  247  A    between atoms: _618  and  _634
REMARK  248  A    between atoms: _619  and  _621
REMARK  249  A    between atoms: _621  and  _622
REMARK  250  A    between atoms: _622  and  _623
REMARK  251  A    between atoms: _627  and  _629
REMARK  252  A    between atoms: _629  and  _630
REMARK  253  A    between atoms: _629  and  _637
REMARK  254  A    between atoms: _630  and  _631
REMARK  255  A    between atoms: _631  and  _632
REMARK  256  A    between atoms: _632  and  _633
REMARK  257  A    between atoms: _633  and  _634
REMARK  258  A    between atoms: _639  and  _641
REMARK  259  A    between atoms: _641  and  _642
REMARK  260  A    between atoms: _641  and  _644
REMARK  261  A    between atoms: _644  and  _645
REMARK  262  A    between atoms: _648  and  _650
REMARK  263  A    between atoms: _650  and  _651
REMARK  264  A    between atoms: _653  and  _655
REMARK  265  A    between atoms: _655  and  _656
REMARK  266  A    between atoms: _659  and  _661
REMARK  267  A    between atoms: _661  and  _662
REMARK  268  A    between atoms: _661  and  _664
REMARK  269  A    between atoms: _664  and  _665
REMARK  270  A    between atoms: _670  and  _671
REMARK                            x       y       z     vdW  Elec       q    Type
REMARK                         _______ _______ _______ _____ _____    ______ ____
ROOT
ATOM      1  O   HOH     1      38.674  23.927  22.507  0.00  0.00    +0.000 OA
ENDROOT
TORSDOF 0
REMARK  Name = ../refined-set-2016/3g2k/3g2k_pocket.pdb
REMARK  270 active torsions:
REMARK  status: ('A' for Active; 'I' for Inactive)
REMARK    1  A    between atoms: _1  and  _3
REMARK    2  A    between atoms: _3  and  _4
REMARK    3  A    between atoms: _3  and  _6
REMARK    4  A    between atoms: _6  and  _7
REMARK    5  A    between atoms: _12  and  _13
REMARK    6  A    between atoms: _15  and  _17
REMARK    7  A    between atoms: _17  and  _18
REMARK    8  A    between atoms: _17  and  _20
REMARK    9  A    between atoms: _20  and  _21
REMARK   10  A    between atoms: _24  and  _26
REMARK   11  A    between atoms: _26  and  _27
REMARK   12  A    between atoms: _26  and  _29
REMARK   13  A    between atoms: _29  and  _30
REMARK   14  A    between atoms: _30  and  _31
REMARK   15  A    between atoms: _34  and  _36
REMARK   16  A    between atoms: _36  and  _37
REMARK   17  A    between atoms: _36  and  _39
REMARK   18  A    between atoms: _39  and  _40
REMARK   19  A    between atoms: _45  and  _47
REMARK   20  A    between atoms: _47  and  _48
REMARK   21  A    between atoms: _50  and  _52
REMARK   22  A    between atoms: _52  and  _53
REMARK   23  A    between atoms: _55  and  _57
REMARK   24  A    between atoms: _57  and  _58
REMARK   25  A    between atoms: _57  and  _60
REMARK   26  A    between atoms: _60  and  _61
REMARK   27  A    between atoms: _64  and  _66
REMARK   28  A    between atoms: _66  and  _67
REMARK   29  A    between atoms: _69  and  _71
REMARK   30  A    between atoms: _71  and  _72
REMARK   31  A    between atoms: _71  and  _74
REMARK   32  A    between atoms: _74  and  _75
REMARK   33  A    between atoms: _75  and  _76
REMARK   34  A    between atoms: _76  and  _77
REMARK   35  A    between atoms: _86  and  _88
REMARK   36  A    between atoms: _88  and  _89
REMARK   37  A    between atoms: _88  and  _91
REMARK   38  A    between atoms: _91  and  _92
REMARK   39  A    between atoms: _95  and  _97
REMARK   40  A    between atoms: _97  and  _98
REMARK   41  A    between atoms: _101  and  _103
REMARK   42  A    between atoms: _103  and  _104
REMARK   43  A    between atoms: _103  and  _106
REMARK   44  A    between atoms: _106  and  _107
REMARK   45  A    between atoms: _113  and  _115
REMARK   46  A    between atoms: _115  and  _116
REMARK   47  A    between atoms: _115  and  _118
REMARK   48  A    between atoms: _118  and  _119
REMARK   49  A    between atoms: _124  and  _125
REMARK   50  A    between atoms: _128  and  _129
REMARK   51  A    between atoms: _134  and  _136
REMARK   52  A    between atoms: _136  and  _137
REMARK   53  A    between atoms: _136  and  _139
REMARK   54  A    between atoms: _139  and  _140
REMARK   55  A    between atoms: _145  and  _147
REMARK   56  A    between atoms: _147  and  _148
REMARK   57  A    between atoms: _147  and  _150
REMARK   58  A    between atoms: _150  and  _151
REMARK   59  A    between atoms: _154  and  _156
REMARK   60  A    between atoms: _156  and  _157
REMARK   61  A    between atoms: _156  and  _159
REMARK   62  A    between atoms: _159  and  _160
REMARK   63  A    between atoms: _165  and  _167
REMARK   64  A    between atoms: _167  and  _168
REMARK   65  A    between atoms: _167  and  _170
REMARK   66  A    between atoms: _170  and  _171
REMARK   67  A    between atoms: _177  and  _179
REMARK   68  A    between atoms: _179  and  _180
REMARK   69  A    between atoms: _179  and  _182
REMARK   70  A    between atoms: _182  and  _183
REMARK   71  A    between atoms: _189  and  _191
REMARK   72  A    between atoms: _191  and  _192
REMARK   73  A    between atoms: _191  and  _194
REMARK   74  A    between atoms: _194  and  _195
REMARK   75  A    between atoms: _195  and  _196
REMARK   76  A    between atoms: _199  and  _201
REMARK   77  A    between atoms: _201  and  _202
REMARK   78  A    between atoms: _201  and  _204
REMARK   79  A    between atoms: _204  and  _205
REMARK   80  A    between atoms: _205  and  _206
REMARK   81  A    between atoms: _206  and  _207
REMARK   82  A    between atoms: _216  and  _218
REMARK   83  A    between atoms: _218  and  _219
REMARK   84  A    between atoms: _218  and  _221
REMARK   85  A    between atoms: _221  and  _222
REMARK   86  A    between atoms: _222  and  _223
REMARK   87  A    between atoms: _226  and  _228
REMARK   88  A    between atoms: _228  and  _229
REMARK   89  A    between atoms: _228  and  _231
REMARK   90  A    between atoms: _231  and  _232
REMARK   91  A    between atoms: _237  and  _239
REMARK   92  A    between atoms: _239  and  _240
REMARK   93  A    between atoms: _239  and  _242
REMARK   94  A    between atoms: _242  and  _243
REMARK   95  A    between atoms: _246  and  _248
REMARK   96  A    between atoms: _248  and  _249
REMARK   97  A    between atoms: _248  and  _251
REMARK   98  A    between atoms: _251  and  _252
REMARK   99  A    between atoms: _255  and  _257
REMARK  100  A    between atoms: _257  and  _258
REMARK  101  A    between atoms: _257  and  _260
REMARK  102  A    between atoms: _260  and  _261
REMARK  103  A    between atoms: _266  and  _268
REMARK  104  A    between atoms: _268  and  _269
REMARK  105  A    between atoms: _268  and  _271
REMARK  106  A    between atoms: _271  and  _272
REMARK  107  A    between atoms: _277  and  _278
REMARK  108  A    between atoms: _280  and  _282
REMARK  109  A    between atoms: _282  and  _283
REMARK  110  A    between atoms: _282  and  _285
REMARK  111  A    between atoms: _285  and  _286
REMARK  112  A    between atoms: _289  and  _291
REMARK  113  A    between atoms: _291  and  _292
REMARK  114  A    between atoms: _291  and  _294
REMARK  115  A    between atoms: _294  and  _295
REMARK  116  A    between atoms: _300  and  _302
REMARK  117  A    between atoms: _302  and  _303
REMARK  118  A    between atoms: _302  and  _305
REMARK  119  A    between atoms: _305  and  _306
REMARK  120  A    between atoms: _311  and  _313
REMARK  121  A    between atoms: _313  and  _314
REMARK  122  A    between atoms: _313  and  _316
REMARK  123  A    between atoms: _316  and  _317
REMARK  124  A    between atoms: _320  and  _322
REMARK  125  A    between atoms: _322  and  _323
REMARK  126  A    between atoms: _322  and  _325
REMARK  127  A    between atoms: _328  and  _330
REMARK  128  A    between atoms: _330  and  _331
REMARK  129  A    between atoms: _330  and  _333
REMARK  130  A    between atoms: _333  and  _334
REMARK  131  A    between atoms: _337  and  _339
REMARK  132  A    between atoms: _339  and  _340
REMARK  133  A    between atoms: _339  and  _342
REMARK  134  A    between atoms: _342  and  _343
REMARK  135  A    between atoms: _343  and  _344
REMARK  136  A    between atoms: _347  and  _349
REMARK  137  A    between atoms: _349  and  _350
REMARK  138  A    between atoms: _353  and  _355
REMARK  139  A    between atoms: _355  and  _356
REMARK  140  A    between atoms: _355  and  _358
REMARK  141  A    between atoms: _358  and  _359
REMARK  142  A    between atoms: _362  and  _364
REMARK  143  A    between atoms: _364  and  _365
REMARK  144  A    between atoms: _364  and  _367
REMARK  145  A    between atoms: _367  and  _368
REMARK  146  A    between atoms: _368  and  _369
REMARK  147  A    between atoms: _372  and  _374
REMARK  148  A    between atoms: _374  and  _375
REMARK  149  A    between atoms: _374  and  _377
REMARK  150  A    between atoms: _377  and  _378
REMARK  151  A    between atoms: _378  and  _379
REMARK  152  A    between atoms: _379  and  _380
REMARK  153  A    between atoms: _389  and  _391
REMARK  154  A    between atoms: _391  and  _392
REMARK  155  A    between atoms: _391  and  _394
REMARK  156  A    between atoms: _394  and  _395
REMARK  157  A    between atoms: _405  and  _407
REMARK  158  A    between atoms: _407  and  _408
REMARK  159  A    between atoms: _407  and  _410
REMARK  160  A    between atoms: _410  and  _411
REMARK  161  A    between atoms: _416  and  _418
REMARK  162  A    between atoms: _418  and  _419
REMARK  163  A    between atoms: _421  and  _423
REMARK  164  A    between atoms: _423  and  _424
REMARK  165  A    between atoms: _423  and  _426
REMARK  166  A    between atoms: _429  and  _431
REMARK  167  A    between atoms: _431  and  _432
REMARK  168  A    between atoms: _435  and  _437
REMARK  169  A    between atoms: _437  and  _438
REMARK  170  A    between atoms: _437  and  _440
REMARK  171  A    between atoms: _440  and  _441
REMARK  172  A    between atoms: _446  and  _448
REMARK  173  A    between atoms: _448  and  _449
REMARK  174  A    between atoms: _448  and  _451
REMARK  175  A    between atoms: _451  and  _452
REMARK  176  A    between atoms: _452  and  _453
REMARK  177  A    between atoms: _453  and  _454
REMARK  178  A    between atoms: _454  and  _455
REMARK  179  A    between atoms: _459  and  _461
REMARK  180  A    between atoms: _461  and  _462
REMARK  181  A    between atoms: _461  and  _464
REMARK  182  A    between atoms: _464  and  _465
REMARK  183  A    between atoms: _470  and  _472
REMARK  184  A    between atoms: _472  and  _473
REMARK  185  A    between atoms: _475  and  _477
REMARK  186  A    between atoms: _477  and  _478
REMARK  187  A    between atoms: _477  and  _480
REMARK  188  A    between atoms: _480  and  _481
REMARK  189  A    between atoms: _481  and  _482
REMARK  190  A    between atoms: _482  and  _483
REMARK  191  A    between atoms: _483  and  _484
REMARK  192  A    between atoms: _488  and  _490
REMARK  193  A    between atoms: _490  and  _491
REMARK  194  A    between atoms: _490  and  _493
REMARK  195  A    between atoms: _493  and  _494
REMARK  196  A    between atoms: _494  and  _495
REMARK  197  A    between atoms: _495  and  _496
REMARK  198  A    between atoms: _505  and  _507
REMARK  199  A    between atoms: _507  and  _508
REMARK  200  A    between atoms: _507  and  _510
REMARK  201  A    between atoms: _510  and  _511
REMARK  202  A    between atoms: _516  and  _517
REMARK  203  A    between atoms: _519  and  _521
REMARK  204  A    between atoms: _521  and  _522
REMARK  205  A    between atoms: _521  and  _524
REMARK  206  A    between atoms: _524  and  _525
REMARK  207  A    between atoms: _525  and  _526
REMARK  208  A    between atoms: _526  and  _527
REMARK  209  A    between atoms: _527  and  _528
REMARK  210  A    between atoms: _532  and  _534
REMARK  211  A    between atoms: _534  and  _535
REMARK  212  A    between atoms: _534  and  _537
REMARK  213  A    between atoms: _537  and  _538
REMARK  214  A    between atoms: _540  and  _542
REMARK  215  A    between atoms: _542  and  _543
REMARK  216  A    between atoms: _542  and  _545
REMARK  217  A    between atoms: _545  and  _546
REMARK  218  A    between atoms: _549  and  _551
REMARK  219  A    between atoms: _551  and  _552
REMARK  220  A    between atoms: _551  and  _554
REMARK  221  A    between atoms: _554  and  _555
REMARK  222  A    between atoms: _555  and  _556
REMARK  223  A    between atoms: _559  and  _561
REMARK  224  A    between atoms: _561  and  _562
REMARK  225  A    between atoms: _565  and  _567
REMARK  226  A    between atoms: _567  and  _568
REMARK  227  A    between atoms: _567  and  _570
REMARK  228  A    between atoms: _570  and  _571
REMARK  229  A    between atoms: _573  and  _575
REMARK  230  A    between atoms: _575  and  _576
REMARK  231  A    between atoms: _578  and  _580
REMARK  232  A    between atoms: _580  and  _581
REMARK  233  A    between atoms: _580  and  _583
REMARK  234  A    between atoms: _583  and  _584
REMARK  235  A    between atoms: _587  and  _589
REMARK  236  A    between atoms: _589  and  _590
REMARK  237  A    between atoms: _592  and  _594
REMARK  238  A    between atoms: _594  and  _595
REMARK  239  A    between atoms: _594  and  _597
REMARK  240  A    between atoms: _597  and  _598
REMARK  241  A    between atoms: _603  and  _605
REMARK  242  A    between atoms: _605  and  _606
REMARK  243  A    between atoms: _605  and  _608
REMARK  244  A    between atoms: _608  and  _609
REMARK  245  A    between atoms: _609  and  _610
REMARK  246  A    between atoms: _617  and  _618
REMARK  247  A    between atoms: _618  and  _634
REMARK  248  A    between atoms: _619  and  _621
REMARK  249  A    between atoms: _621  and  _622
REMARK  250  A    between atoms: _622  and  _623
REMARK  251  A    between atoms: _627  and  _629
REMARK  252  A    between atoms: _629  and  _630
REMARK  253  A    between atoms: _629  and  _637
REMARK  254  A    between atoms: _630  and  _631
REMARK  255  A    between atoms: _631  and  _632
REMARK  256  A    between atoms: _632  and  _633
REMARK  257  A    between atoms: _633  and  _634
REMARK  258  A    between atoms: _639  and  _641
REMARK  259  A    between atoms: _641  and  _642
REMARK  260  A    between atoms: _641  and  _644
REMARK  261  A    between atoms: _644  and  _645
REMARK  262  A    between atoms: _648  and  _650
REMARK  263  A    between atoms: _650  and  _651
REMARK  264  A    between atoms: _653  and  _655
REMARK  265  A    between atoms: _655  and  _656
REMARK  266  A    between atoms: _659  and  _661
REMARK  267  A    between atoms: _661  and  _662
REMARK  268  A    between atoms: _661  and  _664
REMARK  269  A    between atoms: _664  and  _665
REMARK  270  A    between atoms: _670  and  _671
REMARK                            x       y       z     vdW  Elec       q    Type
REMARK                         _______ _______ _______ _____ _____    ______ ____
ROOT
ATOM      1  O   HOH     1      35.946  24.432  24.432  0.00  0.00    +0.000 OA
ENDROOT
TORSDOF 0
REMARK  Name = ../refined-set-2016/3g2k/3g2k_pocket.pdb
REMARK  270 active torsions:
REMARK  status: ('A' for Active; 'I' for Inactive)
REMARK    1  A    between atoms: _1  and  _3
REMARK    2  A    between atoms: _3  and  _4
REMARK    3  A    between atoms: _3  and  _6
REMARK    4  A    between atoms: _6  and  _7
REMARK    5  A    between atoms: _12  and  _13
REMARK    6  A    between atoms: _15  and  _17
REMARK    7  A    between atoms: _17  and  _18
REMARK    8  A    between atoms: _17  and  _20
REMARK    9  A    between atoms: _20  and  _21
REMARK   10  A    between atoms: _24  and  _26
REMARK   11  A    between atoms: _26  and  _27
REMARK   12  A    between atoms: _26  and  _29
REMARK   13  A    between atoms: _29  and  _30
REMARK   14  A    between atoms: _30  and  _31
REMARK   15  A    between atoms: _34  and  _36
REMARK   16  A    between atoms: _36  and  _37
REMARK   17  A    between atoms: _36  and  _39
REMARK   18  A    between atoms: _39  and  _40
REMARK   19  A    between atoms: _45  and  _47
REMARK   20  A    between atoms: _47  and  _48
REMARK   21  A    between atoms: _50  and  _52
REMARK   22  A    between atoms: _52  and  _53
REMARK   23  A    between atoms: _55  and  _57
REMARK   24  A    between atoms: _57  and  _58
REMARK   25  A    between atoms: _57  and  _60
REMARK   26  A    between atoms: _60  and  _61
REMARK   27  A    between atoms: _64  and  _66
REMARK   28  A    between atoms: _66  and  _67
REMARK   29  A    between atoms: _69  and  _71
REMARK   30  A    between atoms: _71  and  _72
REMARK   31  A    between atoms: _71  and  _74
REMARK   32  A    between atoms: _74  and  _75
REMARK   33  A    between atoms: _75  and  _76
REMARK   34  A    between atoms: _76  and  _77
REMARK   35  A    between atoms: _86  and  _88
REMARK   36  A    between atoms: _88  and  _89
REMARK   37  A    between atoms: _88  and  _91
REMARK   38  A    between atoms: _91  and  _92
REMARK   39  A    between atoms: _95  and  _97
REMARK   40  A    between atoms: _97  and  _98
REMARK   41  A    between atoms: _101  and  _103
REMARK   42  A    between atoms: _103  and  _104
REMARK   43  A    between atoms: _103  and  _106
REMARK   44  A    between atoms: _106  and  _107
REMARK   45  A    between atoms: _113  and  _115
REMARK   46  A    between atoms: _115  and  _116
REMARK   47  A    between atoms: _115  and  _118
REMARK   48  A    between atoms: _118  and  _119
REMARK   49  A    between atoms: _124  and  _125
REMARK   50  A    between atoms: _128  and  _129
REMARK   51  A    between atoms: _134  and  _136
REMARK   52  A    between atoms: _136  and  _137
REMARK   53  A    between atoms: _136  and  _139
REMARK   54  A    between atoms: _139  and  _140
REMARK   55  A    between atoms: _145  and  _147
REMARK   56  A    between atoms: _147  and  _148
REMARK   57  A    between atoms: _147  and  _150
REMARK   58  A    between atoms: _150  and  _151
REMARK   59  A    between atoms: _154  and  _156
REMARK   60  A    between atoms: _156  and  _157
REMARK   61  A    between atoms: _156  and  _159
REMARK   62  A    between atoms: _159  and  _160
REMARK   63  A    between atoms: _165  and  _167
REMARK   64  A    between atoms: _167  and  _168
REMARK   65  A    between atoms: _167  and  _170
REMARK   66  A    between atoms: _170  and  _171
REMARK   67  A    between atoms: _177  and  _179
REMARK   68  A    between atoms: _179  and  _180
REMARK   69  A    between atoms: _179  and  _182
REMARK   70  A    between atoms: _182  and  _183
REMARK   71  A    between atoms: _189  and  _191
REMARK   72  A    between atoms: _191  and  _192
REMARK   73  A    between atoms: _191  and  _194
REMARK   74  A    between atoms: _194  and  _195
REMARK   75  A    between atoms: _195  and  _196
REMARK   76  A    between atoms: _199  and  _201
REMARK   77  A    between atoms: _201  and  _202
REMARK   78  A    between atoms: _201  and  _204
REMARK   79  A    between atoms: _204  and  _205
REMARK   80  A    between atoms: _205  and  _206
REMARK   81  A    between atoms: _206  and  _207
REMARK   82  A    between atoms: _216  and  _218
REMARK   83  A    between atoms: _218  and  _219
REMARK   84  A    between atoms: _218  and  _221
REMARK   85  A    between atoms: _221  and  _222
REMARK   86  A    between atoms: _222  and  _223
REMARK   87  A    between atoms: _226  and  _228
REMARK   88  A    between atoms: _228  and  _229
REMARK   89  A    between atoms: _228  and  _231
REMARK   90  A    between atoms: _231  and  _232
REMARK   91  A    between atoms: _237  and  _239
REMARK   92  A    between atoms: _239  and  _240
REMARK   93  A    between atoms: _239  and  _242
REMARK   94  A    between atoms: _242  and  _243
REMARK   95  A    between atoms: _246  and  _248
REMARK   96  A    between atoms: _248  and  _249
REMARK   97  A    between atoms: _248  and  _251
REMARK   98  A    between atoms: _251  and  _252
REMARK   99  A    between atoms: _255  and  _257
REMARK  100  A    between atoms: _257  and  _258
REMARK  101  A    between atoms: _257  and  _260
REMARK  102  A    between atoms: _260  and  _261
REMARK  103  A    between atoms: _266  and  _268
REMARK  104  A    between atoms: _268  and  _269
REMARK  105  A    between atoms: _268  and  _271
REMARK  106  A    between atoms: _271  and  _272
REMARK  107  A    between atoms: _277  and  _278
REMARK  108  A    between atoms: _280  and  _282
REMARK  109  A    between atoms: _282  and  _283
REMARK  110  A    between atoms: _282  and  _285
REMARK  111  A    between atoms: _285  and  _286
REMARK  112  A    between atoms: _289  and  _291
REMARK  113  A    between atoms: _291  and  _292
REMARK  114  A    between atoms: _291  and  _294
REMARK  115  A    between atoms: _294  and  _295
REMARK  116  A    between atoms: _300  and  _302
REMARK  117  A    between atoms: _302  and  _303
REMARK  118  A    between atoms: _302  and  _305
REMARK  119  A    between atoms: _305  and  _306
REMARK  120  A    between atoms: _311  and  _313
REMARK  121  A    between atoms: _313  and  _314
REMARK  122  A    between atoms: _313  and  _316
REMARK  123  A    between atoms: _316  and  _317
REMARK  124  A    between atoms: _320  and  _322
REMARK  125  A    between atoms: _322  and  _323
REMARK  126  A    between atoms: _322  and  _325
REMARK  127  A    between atoms: _328  and  _330
REMARK  128  A    between atoms: _330  and  _331
REMARK  129  A    between atoms: _330  and  _333
REMARK  130  A    between atoms: _333  and  _334
REMARK  131  A    between atoms: _337  and  _339
REMARK  132  A    between atoms: _339  and  _340
REMARK  133  A    between atoms: _339  and  _342
REMARK  134  A    between atoms: _342  and  _343
REMARK  135  A    between atoms: _343  and  _344
REMARK  136  A    between atoms: _347  and  _349
REMARK  137  A    between atoms: _349  and  _350
REMARK  138  A    between atoms: _353  and  _355
REMARK  139  A    between atoms: _355  and  _356
REMARK  140  A    between atoms: _355  and  _358
REMARK  141  A    between atoms: _358  and  _359
REMARK  142  A    between atoms: _362  and  _364
REMARK  143  A    between atoms: _364  and  _365
REMARK  144  A    between atoms: _364  and  _367
REMARK  145  A    between atoms: _367  and  _368
REMARK  146  A    between atoms: _368  and  _369
REMARK  147  A    between atoms: _372  and  _374
REMARK  148  A    between atoms: _374  and  _375
REMARK  149  A    between atoms: _374  and  _377
REMARK  150  A    between atoms: _377  and  _378
REMARK  151  A    between atoms: _378  and  _379
REMARK  152  A    between atoms: _379  and  _380
REMARK  153  A    between atoms: _389  and  _391
REMARK  154  A    between atoms: _391  and  _392
REMARK  155  A    between atoms: _391  and  _394
REMARK  156  A    between atoms: _394  and  _395
REMARK  157  A    between atoms: _405  and  _407
REMARK  158  A    between atoms: _407  and  _408
REMARK  159  A    between atoms: _407  and  _410
REMARK  160  A    between atoms: _410  and  _411
REMARK  161  A    between atoms: _416  and  _418
REMARK  162  A    between atoms: _418  and  _419
REMARK  163  A    between atoms: _421  and  _423
REMARK  164  A    between atoms: _423  and  _424
REMARK  165  A    between atoms: _423  and  _426
REMARK  166  A    between atoms: _429  and  _431
REMARK  167  A    between atoms: _431  and  _432
REMARK  168  A    between atoms: _435  and  _437
REMARK  169  A    between atoms: _437  and  _438
REMARK  170  A    between atoms: _437  and  _440
REMARK  171  A    between atoms: _440  and  _441
REMARK  172  A    between atoms: _446  and  _448
REMARK  173  A    between atoms: _448  and  _449
REMARK  174  A    between atoms: _448  and  _451
REMARK  175  A    between atoms: _451  and  _452
REMARK  176  A    between atoms: _452  and  _453
REMARK  177  A    between atoms: _453  and  _454
REMARK  178  A    between atoms: _454  and  _455
REMARK  179  A    between atoms: _459  and  _461
REMARK  180  A    between atoms: _461  and  _462
REMARK  181  A    between atoms: _461  and  _464
REMARK  182  A    between atoms: _464  and  _465
REMARK  183  A    between atoms: _470  and  _472
REMARK  184  A    between atoms: _472  and  _473
REMARK  185  A    between atoms: _475  and  _477
REMARK  186  A    between atoms: _477  and  _478
REMARK  187  A    between atoms: _477  and  _480
REMARK  188  A    between atoms: _480  and  _481
REMARK  189  A    between atoms: _481  and  _482
REMARK  190  A    between atoms: _482  and  _483
REMARK  191  A    between atoms: _483  and  _484
REMARK  192  A    between atoms: _488  and  _490
REMARK  193  A    between atoms: _490  and  _491
REMARK  194  A    between atoms: _490  and  _493
REMARK  195  A    between atoms: _493  and  _494
REMARK  196  A    between atoms: _494  and  _495
REMARK  197  A    between atoms: _495  and  _496
REMARK  198  A    between atoms: _505  and  _507
REMARK  199  A    between atoms: _507  and  _508
REMARK  200  A    between atoms: _507  and  _510
REMARK  201  A    between atoms: _510  and  _511
REMARK  202  A    between atoms: _516  and  _517
REMARK  203  A    between atoms: _519  and  _521
REMARK  204  A    between atoms: _521  and  _522
REMARK  205  A    between atoms: _521  and  _524
REMARK  206  A    between atoms: _524  and  _525
REMARK  207  A    between atoms: _525  and  _526
REMARK  208  A    between atoms: _526  and  _527
REMARK  209  A    between atoms: _527  and  _528
REMARK  210  A    between atoms: _532  and  _534
REMARK  211  A    between atoms: _534  and  _535
REMARK  212  A    between atoms: _534  and  _537
REMARK  213  A    between atoms: _537  and  _538
REMARK  214  A    between atoms: _540  and  _542
REMARK  215  A    between atoms: _542  and  _543
REMARK  216  A    between atoms: _542  and  _545
REMARK  217  A    between atoms: _545  and  _546
REMARK  218  A    between atoms: _549  and  _551
REMARK  219  A    between atoms: _551  and  _552
REMARK  220  A    between atoms: _551  and  _554
REMARK  221  A    between atoms: _554  and  _555
REMARK  222  A    between atoms: _555  and  _556
REMARK  223  A    between atoms: _559  and  _561
REMARK  224  A    between atoms: _561  and  _562
REMARK  225  A    between atoms: _565  and  _567
REMARK  226  A    between atoms: _567  and  _568
REMARK  227  A    between atoms: _567  and  _570
REMARK  228  A    between atoms: _570  and  _571
REMARK  229  A    between atoms: _573  and  _575
REMARK  230  A    between atoms: _575  and  _576
REMARK  231  A    between atoms: _578  and  _580
REMARK  232  A    between atoms: _580  and  _581
REMARK  233  A    between atoms: _580  and  _583
REMARK  234  A    between atoms: _583  and  _584
REMARK  235  A    between atoms: _587  and  _589
REMARK  236  A    between atoms: _589  and  _590
REMARK  237  A    between atoms: _592  and  _594
REMARK  238  A    between atoms: _594  and  _595
REMARK  239  A    between atoms: _594  and  _597
REMARK  240  A    between atoms: _597  and  _598
REMARK  241  A    between atoms: _603  and  _605
REMARK  242  A    between atoms: _605  and  _606
REMARK  243  A    between atoms: _605  and  _608
REMARK  244  A    between atoms: _608  and  _609
REMARK  245  A    between atoms: _609  and  _610
REMARK  246  A    between atoms: _617  and  _618
REMARK  247  A    between atoms: _618  and  _634
REMARK  248  A    between atoms: _619  and  _621
REMARK  249  A    between atoms: _621  and  _622
REMARK  250  A    between atoms: _622  and  _623
REMARK  251  A    between atoms: _627  and  _629
REMARK  252  A    between atoms: _629  and  _630
REMARK  253  A    between atoms: _629  and  _637
REMARK  254  A    between atoms: _630  and  _631
REMARK  255  A    between atoms: _631  and  _632
REMARK  256  A    between atoms: _632  and  _633
REMARK  257  A    between atoms: _633  and  _634
REMARK  258  A    between atoms: _639  and  _641
REMARK  259  A    between atoms: _641  and  _642
REMARK  260  A    between atoms: _641  and  _644
REMARK  261  A    between atoms: _644  and  _645
REMARK  262  A    between atoms: _648  and  _650
REMARK  263  A    between atoms: _650  and  _651
REMARK  264  A    between atoms: _653  and  _655
REMARK  265  A    between atoms: _655  and  _656
REMARK  266  A    between atoms: _659  and  _661
REMARK  267  A    between atoms: _661  and  _662
REMARK  268  A    between atoms: _661  and  _664
REMARK  269  A    between atoms: _664  and  _665
REMARK  270  A    between atoms: _670  and  _671
REMARK                            x       y       z     vdW  Elec       q    Type
REMARK                         _______ _______ _______ _____ _____    ______ ____
ROOT
ATOM      1  O   HOH     1      37.069  26.649  24.212  0.00  0.00    +0.000 OA
ENDROOT
TORSDOF 0
REMARK  Name = ../refined-set-2016/3g2k/3g2k_pocket.pdb
REMARK  270 active torsions:
REMARK  status: ('A' for Active; 'I' for Inactive)
REMARK    1  A    between atoms: _1  and  _3
REMARK    2  A    between atoms: _3  and  _4
REMARK    3  A    between atoms: _3  and  _6
REMARK    4  A    between atoms: _6  and  _7
REMARK    5  A    between atoms: _12  and  _13
REMARK    6  A    between atoms: _15  and  _17
REMARK    7  A    between atoms: _17  and  _18
REMARK    8  A    between atoms: _17  and  _20
REMARK    9  A    between atoms: _20  and  _21
REMARK   10  A    between atoms: _24  and  _26
REMARK   11  A    between atoms: _26  and  _27
REMARK   12  A    between atoms: _26  and  _29
REMARK   13  A    between atoms: _29  and  _30
REMARK   14  A    between atoms: _30  and  _31
REMARK   15  A    between atoms: _34  and  _36
REMARK   16  A    between atoms: _36  and  _37
REMARK   17  A    between atoms: _36  and  _39
REMARK   18  A    between atoms: _39  and  _40
REMARK   19  A    between atoms: _45  and  _47
REMARK   20  A    between atoms: _47  and  _48
REMARK   21  A    between atoms: _50  and  _52
REMARK   22  A    between atoms: _52  and  _53
REMARK   23  A    between atoms: _55  and  _57
REMARK   24  A    between atoms: _57  and  _58
REMARK   25  A    between atoms: _57  and  _60
REMARK   26  A    between atoms: _60  and  _61
REMARK   27  A    between atoms: _64  and  _66
REMARK   28  A    between atoms: _66  and  _67
REMARK   29  A    between atoms: _69  and  _71
REMARK   30  A    between atoms: _71  and  _72
REMARK   31  A    between atoms: _71  and  _74
REMARK   32  A    between atoms: _74  and  _75
REMARK   33  A    between atoms: _75  and  _76
REMARK   34  A    between atoms: _76  and  _77
REMARK   35  A    between atoms: _86  and  _88
REMARK   36  A    between atoms: _88  and  _89
REMARK   37  A    between atoms: _88  and  _91
REMARK   38  A    between atoms: _91  and  _92
REMARK   39  A    between atoms: _95  and  _97
REMARK   40  A    between atoms: _97  and  _98
REMARK   41  A    between atoms: _101  and  _103
REMARK   42  A    between atoms: _103  and  _104
REMARK   43  A    between atoms: _103  and  _106
REMARK   44  A    between atoms: _106  and  _107
REMARK   45  A    between atoms: _113  and  _115
REMARK   46  A    between atoms: _115  and  _116
REMARK   47  A    between atoms: _115  and  _118
REMARK   48  A    between atoms: _118  and  _119
REMARK   49  A    between atoms: _124  and  _125
REMARK   50  A    between atoms: _128  and  _129
REMARK   51  A    between atoms: _134  and  _136
REMARK   52  A    between atoms: _136  and  _137
REMARK   53  A    between atoms: _136  and  _139
REMARK   54  A    between atoms: _139  and  _140
REMARK   55  A    between atoms: _145  and  _147
REMARK   56  A    between atoms: _147  and  _148
REMARK   57  A    between atoms: _147  and  _150
REMARK   58  A    between atoms: _150  and  _151
REMARK   59  A    between atoms: _154  and  _156
REMARK   60  A    between atoms: _156  and  _157
REMARK   61  A    between atoms: _156  and  _159
REMARK   62  A    between atoms: _159  and  _160
REMARK   63  A    between atoms: _165  and  _167
REMARK   64  A    between atoms: _167  and  _168
REMARK   65  A    between atoms: _167  and  _170
REMARK   66  A    between atoms: _170  and  _171
REMARK   67  A    between atoms: _177  and  _179
REMARK   68  A    between atoms: _179  and  _180
REMARK   69  A    between atoms: _179  and  _182
REMARK   70  A    between atoms: _182  and  _183
REMARK   71  A    between atoms: _189  and  _191
REMARK   72  A    between atoms: _191  and  _192
REMARK   73  A    between atoms: _191  and  _194
REMARK   74  A    between atoms: _194  and  _195
REMARK   75  A    between atoms: _195  and  _196
REMARK   76  A    between atoms: _199  and  _201
REMARK   77  A    between atoms: _201  and  _202
REMARK   78  A    between atoms: _201  and  _204
REMARK   79  A    between atoms: _204  and  _205
REMARK   80  A    between atoms: _205  and  _206
REMARK   81  A    between atoms: _206  and  _207
REMARK   82  A    between atoms: _216  and  _218
REMARK   83  A    between atoms: _218  and  _219
REMARK   84  A    between atoms: _218  and  _221
REMARK   85  A    between atoms: _221  and  _222
REMARK   86  A    between atoms: _222  and  _223
REMARK   87  A    between atoms: _226  and  _228
REMARK   88  A    between atoms: _228  and  _229
REMARK   89  A    between atoms: _228  and  _231
REMARK   90  A    between atoms: _231  and  _232
REMARK   91  A    between atoms: _237  and  _239
REMARK   92  A    between atoms: _239  and  _240
REMARK   93  A    between atoms: _239  and  _242
REMARK   94  A    between atoms: _242  and  _243
REMARK   95  A    between atoms: _246  and  _248
REMARK   96  A    between atoms: _248  and  _249
REMARK   97  A    between atoms: _248  and  _251
REMARK   98  A    between atoms: _251  and  _252
REMARK   99  A    between atoms: _255  and  _257
REMARK  100  A    between atoms: _257  and  _258
REMARK  101  A    between atoms: _257  and  _260
REMARK  102  A    between atoms: _260  and  _261
REMARK  103  A    between atoms: _266  and  _268
REMARK  104  A    between atoms: _268  and  _269
REMARK  105  A    between atoms: _268  and  _271
REMARK  106  A    between atoms: _271  and  _272
REMARK  107  A    between atoms: _277  and  _278
REMARK  108  A    between atoms: _280  and  _282
REMARK  109  A    between atoms: _282  and  _283
REMARK  110  A    between atoms: _282  and  _285
REMARK  111  A    between atoms: _285  and  _286
REMARK  112  A    between atoms: _289  and  _291
REMARK  113  A    between atoms: _291  and  _292
REMARK  114  A    between atoms: _291  and  _294
REMARK  115  A    between atoms: _294  and  _295
REMARK  116  A    between atoms: _300  and  _302
REMARK  117  A    between atoms: _302  and  _303
REMARK  118  A    between atoms: _302  and  _305
REMARK  119  A    between atoms: _305  and  _306
REMARK  120  A    between atoms: _311  and  _313
REMARK  121  A    between atoms: _313  and  _314
REMARK  122  A    between atoms: _313  and  _316
REMARK  123  A    between atoms: _316  and  _317
REMARK  124  A    between atoms: _320  and  _322
REMARK  125  A    between atoms: _322  and  _323
REMARK  126  A    between atoms: _322  and  _325
REMARK  127  A    between atoms: _328  and  _330
REMARK  128  A    between atoms: _330  and  _331
REMARK  129  A    between atoms: _330  and  _333
REMARK  130  A    between atoms: _333  and  _334
REMARK  131  A    between atoms: _337  and  _339
REMARK  132  A    between atoms: _339  and  _340
REMARK  133  A    between atoms: _339  and  _342
REMARK  134  A    between atoms: _342  and  _343
REMARK  135  A    between atoms: _343  and  _344
REMARK  136  A    between atoms: _347  and  _349
REMARK  137  A    between atoms: _349  and  _350
REMARK  138  A    between atoms: _353  and  _355
REMARK  139  A    between atoms: _355  and  _356
REMARK  140  A    between atoms: _355  and  _358
REMARK  141  A    between atoms: _358  and  _359
REMARK  142  A    between atoms: _362  and  _364
REMARK  143  A    between atoms: _364  and  _365
REMARK  144  A    between atoms: _364  and  _367
REMARK  145  A    between atoms: _367  and  _368
REMARK  146  A    between atoms: _368  and  _369
REMARK  147  A    between atoms: _372  and  _374
REMARK  148  A    between atoms: _374  and  _375
REMARK  149  A    between atoms: _374  and  _377
REMARK  150  A    between atoms: _377  and  _378
REMARK  151  A    between atoms: _378  and  _379
REMARK  152  A    between atoms: _379  and  _380
REMARK  153  A    between atoms: _389  and  _391
REMARK  154  A    between atoms: _391  and  _392
REMARK  155  A    between atoms: _391  and  _394
REMARK  156  A    between atoms: _394  and  _395
REMARK  157  A    between atoms: _405  and  _407
REMARK  158  A    between atoms: _407  and  _408
REMARK  159  A    between atoms: _407  and  _410
REMARK  160  A    between atoms: _410  and  _411
REMARK  161  A    between atoms: _416  and  _418
REMARK  162  A    between atoms: _418  and  _419
REMARK  163  A    between atoms: _421  and  _423
REMARK  164  A    between atoms: _423  and  _424
REMARK  165  A    between atoms: _423  and  _426
REMARK  166  A    between atoms: _429  and  _431
REMARK  167  A    between atoms: _431  and  _432
REMARK  168  A    between atoms: _435  and  _437
REMARK  169  A    between atoms: _437  and  _438
REMARK  170  A    between atoms: _437  and  _440
REMARK  171  A    between atoms: _440  and  _441
REMARK  172  A    between atoms: _446  and  _448
REMARK  173  A    between atoms: _448  and  _449
REMARK  174  A    between atoms: _448  and  _451
REMARK  175  A    between atoms: _451  and  _452
REMARK  176  A    between atoms: _452  and  _453
REMARK  177  A    between atoms: _453  and  _454
REMARK  178  A    between atoms: _454  and  _455
REMARK  179  A    between atoms: _459  and  _461
REMARK  180  A    between atoms: _461  and  _462
REMARK  181  A    between atoms: _461  and  _464
REMARK  182  A    between atoms: _464  and  _465
REMARK  183  A    between atoms: _470  and  _472
REMARK  184  A    between atoms: _472  and  _473
REMARK  185  A    between atoms: _475  and  _477
REMARK  186  A    between atoms: _477  and  _478
REMARK  187  A    between atoms: _477  and  _480
REMARK  188  A    between atoms: _480  and  _481
REMARK  189  A    between atoms: _481  and  _482
REMARK  190  A    between atoms: _482  and  _483
REMARK  191  A    between atoms: _483  and  _484
REMARK  192  A    between atoms: _488  and  _490
REMARK  193  A    between atoms: _490  and  _491
REMARK  194  A    between atoms: _490  and  _493
REMARK  195  A    between atoms: _493  and  _494
REMARK  196  A    between atoms: _494  and  _495
REMARK  197  A    between atoms: _495  and  _496
REMARK  198  A    between atoms: _505  and  _507
REMARK  199  A    between atoms: _507  and  _508
REMARK  200  A    between atoms: _507  and  _510
REMARK  201  A    between atoms: _510  and  _511
REMARK  202  A    between atoms: _516  and  _517
REMARK  203  A    between atoms: _519  and  _521
REMARK  204  A    between atoms: _521  and  _522
REMARK  205  A    between atoms: _521  and  _524
REMARK  206  A    between atoms: _524  and  _525
REMARK  207  A    between atoms: _525  and  _526
REMARK  208  A    between atoms: _526  and  _527
REMARK  209  A    between atoms: _527  and  _528
REMARK  210  A    between atoms: _532  and  _534
REMARK  211  A    between atoms: _534  and  _535
REMARK  212  A    between atoms: _534  and  _537
REMARK  213  A    between atoms: _537  and  _538
REMARK  214  A    between atoms: _540  and  _542
REMARK  215  A    between atoms: _542  and  _543
REMARK  216  A    between atoms: _542  and  _545
REMARK  217  A    between atoms: _545  and  _546
REMARK  218  A    between atoms: _549  and  _551
REMARK  219  A    between atoms: _551  and  _552
REMARK  220  A    between atoms: _551  and  _554
REMARK  221  A    between atoms: _554  and  _555
REMARK  222  A    between atoms: _555  and  _556
REMARK  223  A    between atoms: _559  and  _561
REMARK  224  A    between atoms: _561  and  _562
REMARK  225  A    between atoms: _565  and  _567
REMARK  226  A    between atoms: _567  and  _568
REMARK  227  A    between atoms: _567  and  _570
REMARK  228  A    between atoms: _570  and  _571
REMARK  229  A    between atoms: _573  and  _575
REMARK  230  A    between atoms: _575  and  _576
REMARK  231  A    between atoms: _578  and  _580
REMARK  232  A    between atoms: _580  and  _581
REMARK  233  A    between atoms: _580  and  _583
REMARK  234  A    between atoms: _583  and  _584
REMARK  235  A    between atoms: _587  and  _589
REMARK  236  A    between atoms: _589  and  _590
REMARK  237  A    between atoms: _592  and  _594
REMARK  238  A    between atoms: _594  and  _595
REMARK  239  A    between atoms: _594  and  _597
REMARK  240  A    between atoms: _597  and  _598
REMARK  241  A    between atoms: _603  and  _605
REMARK  242  A    between atoms: _605  and  _606
REMARK  243  A    between atoms: _605  and  _608
REMARK  244  A    between atoms: _608  and  _609
REMARK  245  A    between atoms: _609  and  _610
REMARK  246  A    between atoms: _617  and  _618
REMARK  247  A    between atoms: _618  and  _634
REMARK  248  A    between atoms: _619  and  _621
REMARK  249  A    between atoms: _621  and  _622
REMARK  250  A    between atoms: _622  and  _623
REMARK  251  A    between atoms: _627  and  _629
REMARK  252  A    between atoms: _629  and  _630
REMARK  253  A    between atoms: _629  and  _637
REMARK  254  A    between atoms: _630  and  _631
REMARK  255  A    between atoms: _631  and  _632
REMARK  256  A    between atoms: _632  and  _633
REMARK  257  A    between atoms: _633  and  _634
REMARK  258  A    between atoms: _639  and  _641
REMARK  259  A    between atoms: _641  and  _642
REMARK  260  A    between atoms: _641  and  _644
REMARK  261  A    between atoms: _644  and  _645
REMARK  262  A    between atoms: _648  and  _650
REMARK  263  A    between atoms: _650  and  _651
REMARK  264  A    between atoms: _653  and  _655
REMARK  265  A    between atoms: _655  and  _656
REMARK  266  A    between atoms: _659  and  _661
REMARK  267  A    between atoms: _661  and  _662
REMARK  268  A    between atoms: _661  and  _664
REMARK  269  A    between atoms: _664  and  _665
REMARK  270  A    between atoms: _670  and  _671
REMARK                            x       y       z     vdW  Elec       q    Type
REMARK                         _______ _______ _______ _____ _____    ______ ____
ROOT
ATOM      1  O   HOH     1      27.124  19.261  29.027  0.00  0.00    +0.000 OA
ENDROOT
TORSDOF 0
REMARK  Name = ../refined-set-2016/3g2k/3g2k_pocket.pdb
REMARK  270 active torsions:
REMARK  status: ('A' for Active; 'I' for Inactive)
REMARK    1  A    between atoms: _1  and  _3
REMARK    2  A    between atoms: _3  and  _4
REMARK    3  A    between atoms: _3  and  _6
REMARK    4  A    between atoms: _6  and  _7
REMARK    5  A    between atoms: _12  and  _13
REMARK    6  A    between atoms: _15  and  _17
REMARK    7  A    between atoms: _17  and  _18
REMARK    8  A    between atoms: _17  and  _20
REMARK    9  A    between atoms: _20  and  _21
REMARK   10  A    between atoms: _24  and  _26
REMARK   11  A    between atoms: _26  and  _27
REMARK   12  A    between atoms: _26  and  _29
REMARK   13  A    between atoms: _29  and  _30
REMARK   14  A    between atoms: _30  and  _31
REMARK   15  A    between atoms: _34  and  _36
REMARK   16  A    between atoms: _36  and  _37
REMARK   17  A    between atoms: _36  and  _39
REMARK   18  A    between atoms: _39  and  _40
REMARK   19  A    between atoms: _45  and  _47
REMARK   20  A    between atoms: _47  and  _48
REMARK   21  A    between atoms: _50  and  _52
REMARK   22  A    between atoms: _52  and  _53
REMARK   23  A    between atoms: _55  and  _57
REMARK   24  A    between atoms: _57  and  _58
REMARK   25  A    between atoms: _57  and  _60
REMARK   26  A    between atoms: _60  and  _61
REMARK   27  A    between atoms: _64  and  _66
REMARK   28  A    between atoms: _66  and  _67
REMARK   29  A    between atoms: _69  and  _71
REMARK   30  A    between atoms: _71  and  _72
REMARK   31  A    between atoms: _71  and  _74
REMARK   32  A    between atoms: _74  and  _75
REMARK   33  A    between atoms: _75  and  _76
REMARK   34  A    between atoms: _76  and  _77
REMARK   35  A    between atoms: _86  and  _88
REMARK   36  A    between atoms: _88  and  _89
REMARK   37  A    between atoms: _88  and  _91
REMARK   38  A    between atoms: _91  and  _92
REMARK   39  A    between atoms: _95  and  _97
REMARK   40  A    between atoms: _97  and  _98
REMARK   41  A    between atoms: _101  and  _103
REMARK   42  A    between atoms: _103  and  _104
REMARK   43  A    between atoms: _103  and  _106
REMARK   44  A    between atoms: _106  and  _107
REMARK   45  A    between atoms: _113  and  _115
REMARK   46  A    between atoms: _115  and  _116
REMARK   47  A    between atoms: _115  and  _118
REMARK   48  A    between atoms: _118  and  _119
REMARK   49  A    between atoms: _124  and  _125
REMARK   50  A    between atoms: _128  and  _129
REMARK   51  A    between atoms: _134  and  _136
REMARK   52  A    between atoms: _136  and  _137
REMARK   53  A    between atoms: _136  and  _139
REMARK   54  A    between atoms: _139  and  _140
REMARK   55  A    between atoms: _145  and  _147
REMARK   56  A    between atoms: _147  and  _148
REMARK   57  A    between atoms: _147  and  _150
REMARK   58  A    between atoms: _150  and  _151
REMARK   59  A    between atoms: _154  and  _156
REMARK   60  A    between atoms: _156  and  _157
REMARK   61  A    between atoms: _156  and  _159
REMARK   62  A    between atoms: _159  and  _160
REMARK   63  A    between atoms: _165  and  _167
REMARK   64  A    between atoms: _167  and  _168
REMARK   65  A    between atoms: _167  and  _170
REMARK   66  A    between atoms: _170  and  _171
REMARK   67  A    between atoms: _177  and  _179
REMARK   68  A    between atoms: _179  and  _180
REMARK   69  A    between atoms: _179  and  _182
REMARK   70  A    between atoms: _182  and  _183
REMARK   71  A    between atoms: _189  and  _191
REMARK   72  A    between atoms: _191  and  _192
REMARK   73  A    between atoms: _191  and  _194
REMARK   74  A    between atoms: _194  and  _195
REMARK   75  A    between atoms: _195  and  _196
REMARK   76  A    between atoms: _199  and  _201
REMARK   77  A    between atoms: _201  and  _202
REMARK   78  A    between atoms: _201  and  _204
REMARK   79  A    between atoms: _204  and  _205
REMARK   80  A    between atoms: _205  and  _206
REMARK   81  A    between atoms: _206  and  _207
REMARK   82  A    between atoms: _216  and  _218
REMARK   83  A    between atoms: _218  and  _219
REMARK   84  A    between atoms: _218  and  _221
REMARK   85  A    between atoms: _221  and  _222
REMARK   86  A    between atoms: _222  and  _223
REMARK   87  A    between atoms: _226  and  _228
REMARK   88  A    between atoms: _228  and  _229
REMARK   89  A    between atoms: _228  and  _231
REMARK   90  A    between atoms: _231  and  _232
REMARK   91  A    between atoms: _237  and  _239
REMARK   92  A    between atoms: _239  and  _240
REMARK   93  A    between atoms: _239  and  _242
REMARK   94  A    between atoms: _242  and  _243
REMARK   95  A    between atoms: _246  and  _248
REMARK   96  A    between atoms: _248  and  _249
REMARK   97  A    between atoms: _248  and  _251
REMARK   98  A    between atoms: _251  and  _252
REMARK   99  A    between atoms: _255  and  _257
REMARK  100  A    between atoms: _257  and  _258
REMARK  101  A    between atoms: _257  and  _260
REMARK  102  A    between atoms: _260  and  _261
REMARK  103  A    between atoms: _266  and  _268
REMARK  104  A    between atoms: _268  and  _269
REMARK  105  A    between atoms: _268  and  _271
REMARK  106  A    between atoms: _271  and  _272
REMARK  107  A    between atoms: _277  and  _278
REMARK  108  A    between atoms: _280  and  _282
REMARK  109  A    between atoms: _282  and  _283
REMARK  110  A    between atoms: _282  and  _285
REMARK  111  A    between atoms: _285  and  _286
REMARK  112  A    between atoms: _289  and  _291
REMARK  113  A    between atoms: _291  and  _292
REMARK  114  A    between atoms: _291  and  _294
REMARK  115  A    between atoms: _294  and  _295
REMARK  116  A    between atoms: _300  and  _302
REMARK  117  A    between atoms: _302  and  _303
REMARK  118  A    between atoms: _302  and  _305
REMARK  119  A    between atoms: _305  and  _306
REMARK  120  A    between atoms: _311  and  _313
REMARK  121  A    between atoms: _313  and  _314
REMARK  122  A    between atoms: _313  and  _316
REMARK  123  A    between atoms: _316  and  _317
REMARK  124  A    between atoms: _320  and  _322
REMARK  125  A    between atoms: _322  and  _323
REMARK  126  A    between atoms: _322  and  _325
REMARK  127  A    between atoms: _328  and  _330
REMARK  128  A    between atoms: _330  and  _331
REMARK  129  A    between atoms: _330  and  _333
REMARK  130  A    between atoms: _333  and  _334
REMARK  131  A    between atoms: _337  and  _339
REMARK  132  A    between atoms: _339  and  _340
REMARK  133  A    between atoms: _339  and  _342
REMARK  134  A    between atoms: _342  and  _343
REMARK  135  A    between atoms: _343  and  _344
REMARK  136  A    between atoms: _347  and  _349
REMARK  137  A    between atoms: _349  and  _350
REMARK  138  A    between atoms: _353  and  _355
REMARK  139  A    between atoms: _355  and  _356
REMARK  140  A    between atoms: _355  and  _358
REMARK  141  A    between atoms: _358  and  _359
REMARK  142  A    between atoms: _362  and  _364
REMARK  143  A    between atoms: _364  and  _365
REMARK  144  A    between atoms: _364  and  _367
REMARK  145  A    between atoms: _367  and  _368
REMARK  146  A    between atoms: _368  and  _369
REMARK  147  A    between atoms: _372  and  _374
REMARK  148  A    between atoms: _374  and  _375
REMARK  149  A    between atoms: _374  and  _377
REMARK  150  A    between atoms: _377  and  _378
REMARK  151  A    between atoms: _378  and  _379
REMARK  152  A    between atoms: _379  and  _380
REMARK  153  A    between atoms: _389  and  _391
REMARK  154  A    between atoms: _391  and  _392
REMARK  155  A    between atoms: _391  and  _394
REMARK  156  A    between atoms: _394  and  _395
REMARK  157  A    between atoms: _405  and  _407
REMARK  158  A    between atoms: _407  and  _408
REMARK  159  A    between atoms: _407  and  _410
REMARK  160  A    between atoms: _410  and  _411
REMARK  161  A    between atoms: _416  and  _418
REMARK  162  A    between atoms: _418  and  _419
REMARK  163  A    between atoms: _421  and  _423
REMARK  164  A    between atoms: _423  and  _424
REMARK  165  A    between atoms: _423  and  _426
REMARK  166  A    between atoms: _429  and  _431
REMARK  167  A    between atoms: _431  and  _432
REMARK  168  A    between atoms: _435  and  _437
REMARK  169  A    between atoms: _437  and  _438
REMARK  170  A    between atoms: _437  and  _440
REMARK  171  A    between atoms: _440  and  _441
REMARK  172  A    between atoms: _446  and  _448
REMARK  173  A    between atoms: _448  and  _449
REMARK  174  A    between atoms: _448  and  _451
REMARK  175  A    between atoms: _451  and  _452
REMARK  176  A    between atoms: _452  and  _453
REMARK  177  A    between atoms: _453  and  _454
REMARK  178  A    between atoms: _454  and  _455
REMARK  179  A    between atoms: _459  and  _461
REMARK  180  A    between atoms: _461  and  _462
REMARK  181  A    between atoms: _461  and  _464
REMARK  182  A    between atoms: _464  and  _465
REMARK  183  A    between atoms: _470  and  _472
REMARK  184  A    between atoms: _472  and  _473
REMARK  185  A    between atoms: _475  and  _477
REMARK  186  A    between atoms: _477  and  _478
REMARK  187  A    between atoms: _477  and  _480
REMARK  188  A    between atoms: _480  and  _481
REMARK  189  A    between atoms: _481  and  _482
REMARK  190  A    between atoms: _482  and  _483
REMARK  191  A    between atoms: _483  and  _484
REMARK  192  A    between atoms: _488  and  _490
REMARK  193  A    between atoms: _490  and  _491
REMARK  194  A    between atoms: _490  and  _493
REMARK  195  A    between atoms: _493  and  _494
REMARK  196  A    between atoms: _494  and  _495
REMARK  197  A    between atoms: _495  and  _496
REMARK  198  A    between atoms: _505  and  _507
REMARK  199  A    between atoms: _507  and  _508
REMARK  200  A    between atoms: _507  and  _510
REMARK  201  A    between atoms: _510  and  _511
REMARK  202  A    between atoms: _516  and  _517
REMARK  203  A    between atoms: _519  and  _521
REMARK  204  A    between atoms: _521  and  _522
REMARK  205  A    between atoms: _521  and  _524
REMARK  206  A    between atoms: _524  and  _525
REMARK  207  A    between atoms: _525  and  _526
REMARK  208  A    between atoms: _526  and  _527
REMARK  209  A    between atoms: _527  and  _528
REMARK  210  A    between atoms: _532  and  _534
REMARK  211  A    between atoms: _534  and  _535
REMARK  212  A    between atoms: _534  and  _537
REMARK  213  A    between atoms: _537  and  _538
REMARK  214  A    between atoms: _540  and  _542
REMARK  215  A    between atoms: _542  and  _543
REMARK  216  A    between atoms: _542  and  _545
REMARK  217  A    between atoms: _545  and  _546
REMARK  218  A    between atoms: _549  and  _551
REMARK  219  A    between atoms: _551  and  _552
REMARK  220  A    between atoms: _551  and  _554
REMARK  221  A    between atoms: _554  and  _555
REMARK  222  A    between atoms: _555  and  _556
REMARK  223  A    between atoms: _559  and  _561
REMARK  224  A    between atoms: _561  and  _562
REMARK  225  A    between atoms: _565  and  _567
REMARK  226  A    between atoms: _567  and  _568
REMARK  227  A    between atoms: _567  and  _570
REMARK  228  A    between atoms: _570  and  _571
REMARK  229  A    between atoms: _573  and  _575
REMARK  230  A    between atoms: _575  and  _576
REMARK  231  A    between atoms: _578  and  _580
REMARK  232  A    between atoms: _580  and  _581
REMARK  233  A    between atoms: _580  and  _583
REMARK  234  A    between atoms: _583  and  _584
REMARK  235  A    between atoms: _587  and  _589
REMARK  236  A    between atoms: _589  and  _590
REMARK  237  A    between atoms: _592  and  _594
REMARK  238  A    between atoms: _594  and  _595
REMARK  239  A    between atoms: _594  and  _597
REMARK  240  A    between atoms: _597  and  _598
REMARK  241  A    between atoms: _603  and  _605
REMARK  242  A    between atoms: _605  and  _606
REMARK  243  A    between atoms: _605  and  _608
REMARK  244  A    between atoms: _608  and  _609
REMARK  245  A    between atoms: _609  and  _610
REMARK  246  A    between atoms: _617  and  _618
REMARK  247  A    between atoms: _618  and  _634
REMARK  248  A    between atoms: _619  and  _621
REMARK  249  A    between atoms: _621  and  _622
REMARK  250  A    between atoms: _622  and  _623
REMARK  251  A    between atoms: _627  and  _629
REMARK  252  A    between atoms: _629  and  _630
REMARK  253  A    between atoms: _629  and  _637
REMARK  254  A    between atoms: _630  and  _631
REMARK  255  A    between atoms: _631  and  _632
REMARK  256  A    between atoms: _632  and  _633
REMARK  257  A    between atoms: _633  and  _634
REMARK  258  A    between atoms: _639  and  _641
REMARK  259  A    between atoms: _641  and  _642
REMARK  260  A    between atoms: _641  and  _644
REMARK  261  A    between atoms: _644  and  _645
REMARK  262  A    between atoms: _648  and  _650
REMARK  263  A    between atoms: _650  and  _651
REMARK  264  A    between atoms: _653  and  _655
REMARK  265  A    between atoms: _655  and  _656
REMARK  266  A    between atoms: _659  and  _661
REMARK  267  A    between atoms: _661  and  _662
REMARK  268  A    between atoms: _661  and  _664
REMARK  269  A    between atoms: _664  and  _665
REMARK  270  A    between atoms: _670  and  _671
REMARK                            x       y       z     vdW  Elec       q    Type
REMARK                         _______ _______ _______ _____ _____    ______ ____
ROOT
ATOM      1  O   HOH     1      26.262  16.613  28.813  0.00  0.00    +0.000 OA
ENDROOT
TORSDOF 0
REMARK  Name = ../refined-set-2016/3g2k/3g2k_pocket.pdb
REMARK  270 active torsions:
REMARK  status: ('A' for Active; 'I' for Inactive)
REMARK    1  A    between atoms: _1  and  _3
REMARK    2  A    between atoms: _3  and  _4
REMARK    3  A    between atoms: _3  and  _6
REMARK    4  A    between atoms: _6  and  _7
REMARK    5  A    between atoms: _12  and  _13
REMARK    6  A    between atoms: _15  and  _17
REMARK    7  A    between atoms: _17  and  _18
REMARK    8  A    between atoms: _17  and  _20
REMARK    9  A    between atoms: _20  and  _21
REMARK   10  A    between atoms: _24  and  _26
REMARK   11  A    between atoms: _26  and  _27
REMARK   12  A    between atoms: _26  and  _29
REMARK   13  A    between atoms: _29  and  _30
REMARK   14  A    between atoms: _30  and  _31
REMARK   15  A    between atoms: _34  and  _36
REMARK   16  A    between atoms: _36  and  _37
REMARK   17  A    between atoms: _36  and  _39
REMARK   18  A    between atoms: _39  and  _40
REMARK   19  A    between atoms: _45  and  _47
REMARK   20  A    between atoms: _47  and  _48
REMARK   21  A    between atoms: _50  and  _52
REMARK   22  A    between atoms: _52  and  _53
REMARK   23  A    between atoms: _55  and  _57
REMARK   24  A    between atoms: _57  and  _58
REMARK   25  A    between atoms: _57  and  _60
REMARK   26  A    between atoms: _60  and  _61
REMARK   27  A    between atoms: _64  and  _66
REMARK   28  A    between atoms: _66  and  _67
REMARK   29  A    between atoms: _69  and  _71
REMARK   30  A    between atoms: _71  and  _72
REMARK   31  A    between atoms: _71  and  _74
REMARK   32  A    between atoms: _74  and  _75
REMARK   33  A    between atoms: _75  and  _76
REMARK   34  A    between atoms: _76  and  _77
REMARK   35  A    between atoms: _86  and  _88
REMARK   36  A    between atoms: _88  and  _89
REMARK   37  A    between atoms: _88  and  _91
REMARK   38  A    between atoms: _91  and  _92
REMARK   39  A    between atoms: _95  and  _97
REMARK   40  A    between atoms: _97  and  _98
REMARK   41  A    between atoms: _101  and  _103
REMARK   42  A    between atoms: _103  and  _104
REMARK   43  A    between atoms: _103  and  _106
REMARK   44  A    between atoms: _106  and  _107
REMARK   45  A    between atoms: _113  and  _115
REMARK   46  A    between atoms: _115  and  _116
REMARK   47  A    between atoms: _115  and  _118
REMARK   48  A    between atoms: _118  and  _119
REMARK   49  A    between atoms: _124  and  _125
REMARK   50  A    between atoms: _128  and  _129
REMARK   51  A    between atoms: _134  and  _136
REMARK   52  A    between atoms: _136  and  _137
REMARK   53  A    between atoms: _136  and  _139
REMARK   54  A    between atoms: _139  and  _140
REMARK   55  A    between atoms: _145  and  _147
REMARK   56  A    between atoms: _147  and  _148
REMARK   57  A    between atoms: _147  and  _150
REMARK   58  A    between atoms: _150  and  _151
REMARK   59  A    between atoms: _154  and  _156
REMARK   60  A    between atoms: _156  and  _157
REMARK   61  A    between atoms: _156  and  _159
REMARK   62  A    between atoms: _159  and  _160
REMARK   63  A    between atoms: _165  and  _167
REMARK   64  A    between atoms: _167  and  _168
REMARK   65  A    between atoms: _167  and  _170
REMARK   66  A    between atoms: _170  and  _171
REMARK   67  A    between atoms: _177  and  _179
REMARK   68  A    between atoms: _179  and  _180
REMARK   69  A    between atoms: _179  and  _182
REMARK   70  A    between atoms: _182  and  _183
REMARK   71  A    between atoms: _189  and  _191
REMARK   72  A    between atoms: _191  and  _192
REMARK   73  A    between atoms: _191  and  _194
REMARK   74  A    between atoms: _194  and  _195
REMARK   75  A    between atoms: _195  and  _196
REMARK   76  A    between atoms: _199  and  _201
REMARK   77  A    between atoms: _201  and  _202
REMARK   78  A    between atoms: _201  and  _204
REMARK   79  A    between atoms: _204  and  _205
REMARK   80  A    between atoms: _205  and  _206
REMARK   81  A    between atoms: _206  and  _207
REMARK   82  A    between atoms: _216  and  _218
REMARK   83  A    between atoms: _218  and  _219
REMARK   84  A    between atoms: _218  and  _221
REMARK   85  A    between atoms: _221  and  _222
REMARK   86  A    between atoms: _222  and  _223
REMARK   87  A    between atoms: _226  and  _228
REMARK   88  A    between atoms: _228  and  _229
REMARK   89  A    between atoms: _228  and  _231
REMARK   90  A    between atoms: _231  and  _232
REMARK   91  A    between atoms: _237  and  _239
REMARK   92  A    between atoms: _239  and  _240
REMARK   93  A    between atoms: _239  and  _242
REMARK   94  A    between atoms: _242  and  _243
REMARK   95  A    between atoms: _246  and  _248
REMARK   96  A    between atoms: _248  and  _249
REMARK   97  A    between atoms: _248  and  _251
REMARK   98  A    between atoms: _251  and  _252
REMARK   99  A    between atoms: _255  and  _257
REMARK  100  A    between atoms: _257  and  _258
REMARK  101  A    between atoms: _257  and  _260
REMARK  102  A    between atoms: _260  and  _261
REMARK  103  A    between atoms: _266  and  _268
REMARK  104  A    between atoms: _268  and  _269
REMARK  105  A    between atoms: _268  and  _271
REMARK  106  A    between atoms: _271  and  _272
REMARK  107  A    between atoms: _277  and  _278
REMARK  108  A    between atoms: _280  and  _282
REMARK  109  A    between atoms: _282  and  _283
REMARK  110  A    between atoms: _282  and  _285
REMARK  111  A    between atoms: _285  and  _286
REMARK  112  A    between atoms: _289  and  _291
REMARK  113  A    between atoms: _291  and  _292
REMARK  114  A    between atoms: _291  and  _294
REMARK  115  A    between atoms: _294  and  _295
REMARK  116  A    between atoms: _300  and  _302
REMARK  117  A    between atoms: _302  and  _303
REMARK  118  A    between atoms: _302  and  _305
REMARK  119  A    between atoms: _305  and  _306
REMARK  120  A    between atoms: _311  and  _313
REMARK  121  A    between atoms: _313  and  _314
REMARK  122  A    between atoms: _313  and  _316
REMARK  123  A    between atoms: _316  and  _317
REMARK  124  A    between atoms: _320  and  _322
REMARK  125  A    between atoms: _322  and  _323
REMARK  126  A    between atoms: _322  and  _325
REMARK  127  A    between atoms: _328  and  _330
REMARK  128  A    between atoms: _330  and  _331
REMARK  129  A    between atoms: _330  and  _333
REMARK  130  A    between atoms: _333  and  _334
REMARK  131  A    between atoms: _337  and  _339
REMARK  132  A    between atoms: _339  and  _340
REMARK  133  A    between atoms: _339  and  _342
REMARK  134  A    between atoms: _342  and  _343
REMARK  135  A    between atoms: _343  and  _344
REMARK  136  A    between atoms: _347  and  _349
REMARK  137  A    between atoms: _349  and  _350
REMARK  138  A    between atoms: _353  and  _355
REMARK  139  A    between atoms: _355  and  _356
REMARK  140  A    between atoms: _355  and  _358
REMARK  141  A    between atoms: _358  and  _359
REMARK  142  A    between atoms: _362  and  _364
REMARK  143  A    between atoms: _364  and  _365
REMARK  144  A    between atoms: _364  and  _367
REMARK  145  A    between atoms: _367  and  _368
REMARK  146  A    between atoms: _368  and  _369
REMARK  147  A    between atoms: _372  and  _374
REMARK  148  A    between atoms: _374  and  _375
REMARK  149  A    between atoms: _374  and  _377
REMARK  150  A    between atoms: _377  and  _378
REMARK  151  A    between atoms: _378  and  _379
REMARK  152  A    between atoms: _379  and  _380
REMARK  153  A    between atoms: _389  and  _391
REMARK  154  A    between atoms: _391  and  _392
REMARK  155  A    between atoms: _391  and  _394
REMARK  156  A    between atoms: _394  and  _395
REMARK  157  A    between atoms: _405  and  _407
REMARK  158  A    between atoms: _407  and  _408
REMARK  159  A    between atoms: _407  and  _410
REMARK  160  A    between atoms: _410  and  _411
REMARK  161  A    between atoms: _416  and  _418
REMARK  162  A    between atoms: _418  and  _419
REMARK  163  A    between atoms: _421  and  _423
REMARK  164  A    between atoms: _423  and  _424
REMARK  165  A    between atoms: _423  and  _426
REMARK  166  A    between atoms: _429  and  _431
REMARK  167  A    between atoms: _431  and  _432
REMARK  168  A    between atoms: _435  and  _437
REMARK  169  A    between atoms: _437  and  _438
REMARK  170  A    between atoms: _437  and  _440
REMARK  171  A    between atoms: _440  and  _441
REMARK  172  A    between atoms: _446  and  _448
REMARK  173  A    between atoms: _448  and  _449
REMARK  174  A    between atoms: _448  and  _451
REMARK  175  A    between atoms: _451  and  _452
REMARK  176  A    between atoms: _452  and  _453
REMARK  177  A    between atoms: _453  and  _454
REMARK  178  A    between atoms: _454  and  _455
REMARK  179  A    between atoms: _459  and  _461
REMARK  180  A    between atoms: _461  and  _462
REMARK  181  A    between atoms: _461  and  _464
REMARK  182  A    between atoms: _464  and  _465
REMARK  183  A    between atoms: _470  and  _472
REMARK  184  A    between atoms: _472  and  _473
REMARK  185  A    between atoms: _475  and  _477
REMARK  186  A    between atoms: _477  and  _478
REMARK  187  A    between atoms: _477  and  _480
REMARK  188  A    between atoms: _480  and  _481
REMARK  189  A    between atoms: _481  and  _482
REMARK  190  A    between atoms: _482  and  _483
REMARK  191  A    between atoms: _483  and  _484
REMARK  192  A    between atoms: _488  and  _490
REMARK  193  A    between atoms: _490  and  _491
REMARK  194  A    between atoms: _490  and  _493
REMARK  195  A    between atoms: _493  and  _494
REMARK  196  A    between atoms: _494  and  _495
REMARK  197  A    between atoms: _495  and  _496
REMARK  198  A    between atoms: _505  and  _507
REMARK  199  A    between atoms: _507  and  _508
REMARK  200  A    between atoms: _507  and  _510
REMARK  201  A    between atoms: _510  and  _511
REMARK  202  A    between atoms: _516  and  _517
REMARK  203  A    between atoms: _519  and  _521
REMARK  204  A    between atoms: _521  and  _522
REMARK  205  A    between atoms: _521  and  _524
REMARK  206  A    between atoms: _524  and  _525
REMARK  207  A    between atoms: _525  and  _526
REMARK  208  A    between atoms: _526  and  _527
REMARK  209  A    between atoms: _527  and  _528
REMARK  210  A    between atoms: _532  and  _534
REMARK  211  A    between atoms: _534  and  _535
REMARK  212  A    between atoms: _534  and  _537
REMARK  213  A    between atoms: _537  and  _538
REMARK  214  A    between atoms: _540  and  _542
REMARK  215  A    between atoms: _542  and  _543
REMARK  216  A    between atoms: _542  and  _545
REMARK  217  A    between atoms: _545  and  _546
REMARK  218  A    between atoms: _549  and  _551
REMARK  219  A    between atoms: _551  and  _552
REMARK  220  A    between atoms: _551  and  _554
REMARK  221  A    between atoms: _554  and  _555
REMARK  222  A    between atoms: _555  and  _556
REMARK  223  A    between atoms: _559  and  _561
REMARK  224  A    between atoms: _561  and  _562
REMARK  225  A    between atoms: _565  and  _567
REMARK  226  A    between atoms: _567  and  _568
REMARK  227  A    between atoms: _567  and  _570
REMARK  228  A    between atoms: _570  and  _571
REMARK  229  A    between atoms: _573  and  _575
REMARK  230  A    between atoms: _575  and  _576
REMARK  231  A    between atoms: _578  and  _580
REMARK  232  A    between atoms: _580  and  _581
REMARK  233  A    between atoms: _580  and  _583
REMARK  234  A    between atoms: _583  and  _584
REMARK  235  A    between atoms: _587  and  _589
REMARK  236  A    between atoms: _589  and  _590
REMARK  237  A    between atoms: _592  and  _594
REMARK  238  A    between atoms: _594  and  _595
REMARK  239  A    between atoms: _594  and  _597
REMARK  240  A    between atoms: _597  and  _598
REMARK  241  A    between atoms: _603  and  _605
REMARK  242  A    between atoms: _605  and  _606
REMARK  243  A    between atoms: _605  and  _608
REMARK  244  A    between atoms: _608  and  _609
REMARK  245  A    between atoms: _609  and  _610
REMARK  246  A    between atoms: _617  and  _618
REMARK  247  A    between atoms: _618  and  _634
REMARK  248  A    between atoms: _619  and  _621
REMARK  249  A    between atoms: _621  and  _622
REMARK  250  A    between atoms: _622  and  _623
REMARK  251  A    between atoms: _627  and  _629
REMARK  252  A    between atoms: _629  and  _630
REMARK  253  A    between atoms: _629  and  _637
REMARK  254  A    between atoms: _630  and  _631
REMARK  255  A    between atoms: _631  and  _632
REMARK  256  A    between atoms: _632  and  _633
REMARK  257  A    between atoms: _633  and  _634
REMARK  258  A    between atoms: _639  and  _641
REMARK  259  A    between atoms: _641  and  _642
REMARK  260  A    between atoms: _641  and  _644
REMARK  261  A    between atoms: _644  and  _645
REMARK  262  A    between atoms: _648  and  _650
REMARK  263  A    between atoms: _650  and  _651
REMARK  264  A    between atoms: _653  and  _655
REMARK  265  A    between atoms: _655  and  _656
REMARK  266  A    between atoms: _659  and  _661
REMARK  267  A    between atoms: _661  and  _662
REMARK  268  A    between atoms: _661  and  _664
REMARK  269  A    between atoms: _664  and  _665
REMARK  270  A    between atoms: _670  and  _671
REMARK                            x       y       z     vdW  Elec       q    Type
REMARK                         _______ _______ _______ _____ _____    ______ ____
ROOT
ATOM      1  O   HOH     1      29.164  21.828  26.423  0.00  0.00    +0.000 OA
ENDROOT
TORSDOF 0
REMARK  Name = ../refined-set-2016/3g2k/3g2k_pocket.pdb
REMARK  270 active torsions:
REMARK  status: ('A' for Active; 'I' for Inactive)
REMARK    1  A    between atoms: _1  and  _3
REMARK    2  A    between atoms: _3  and  _4
REMARK    3  A    between atoms: _3  and  _6
REMARK    4  A    between atoms: _6  and  _7
REMARK    5  A    between atoms: _12  and  _13
REMARK    6  A    between atoms: _15  and  _17
REMARK    7  A    between atoms: _17  and  _18
REMARK    8  A    between atoms: _17  and  _20
REMARK    9  A    between atoms: _20  and  _21
REMARK   10  A    between atoms: _24  and  _26
REMARK   11  A    between atoms: _26  and  _27
REMARK   12  A    between atoms: _26  and  _29
REMARK   13  A    between atoms: _29  and  _30
REMARK   14  A    between atoms: _30  and  _31
REMARK   15  A    between atoms: _34  and  _36
REMARK   16  A    between atoms: _36  and  _37
REMARK   17  A    between atoms: _36  and  _39
REMARK   18  A    between atoms: _39  and  _40
REMARK   19  A    between atoms: _45  and  _47
REMARK   20  A    between atoms: _47  and  _48
REMARK   21  A    between atoms: _50  and  _52
REMARK   22  A    between atoms: _52  and  _53
REMARK   23  A    between atoms: _55  and  _57
REMARK   24  A    between atoms: _57  and  _58
REMARK   25  A    between atoms: _57  and  _60
REMARK   26  A    between atoms: _60  and  _61
REMARK   27  A    between atoms: _64  and  _66
REMARK   28  A    between atoms: _66  and  _67
REMARK   29  A    between atoms: _69  and  _71
REMARK   30  A    between atoms: _71  and  _72
REMARK   31  A    between atoms: _71  and  _74
REMARK   32  A    between atoms: _74  and  _75
REMARK   33  A    between atoms: _75  and  _76
REMARK   34  A    between atoms: _76  and  _77
REMARK   35  A    between atoms: _86  and  _88
REMARK   36  A    between atoms: _88  and  _89
REMARK   37  A    between atoms: _88  and  _91
REMARK   38  A    between atoms: _91  and  _92
REMARK   39  A    between atoms: _95  and  _97
REMARK   40  A    between atoms: _97  and  _98
REMARK   41  A    between atoms: _101  and  _103
REMARK   42  A    between atoms: _103  and  _104
REMARK   43  A    between atoms: _103  and  _106
REMARK   44  A    between atoms: _106  and  _107
REMARK   45  A    between atoms: _113  and  _115
REMARK   46  A    between atoms: _115  and  _116
REMARK   47  A    between atoms: _115  and  _118
REMARK   48  A    between atoms: _118  and  _119
REMARK   49  A    between atoms: _124  and  _125
REMARK   50  A    between atoms: _128  and  _129
REMARK   51  A    between atoms: _134  and  _136
REMARK   52  A    between atoms: _136  and  _137
REMARK   53  A    between atoms: _136  and  _139
REMARK   54  A    between atoms: _139  and  _140
REMARK   55  A    between atoms: _145  and  _147
REMARK   56  A    between atoms: _147  and  _148
REMARK   57  A    between atoms: _147  and  _150
REMARK   58  A    between atoms: _150  and  _151
REMARK   59  A    between atoms: _154  and  _156
REMARK   60  A    between atoms: _156  and  _157
REMARK   61  A    between atoms: _156  and  _159
REMARK   62  A    between atoms: _159  and  _160
REMARK   63  A    between atoms: _165  and  _167
REMARK   64  A    between atoms: _167  and  _168
REMARK   65  A    between atoms: _167  and  _170
REMARK   66  A    between atoms: _170  and  _171
REMARK   67  A    between atoms: _177  and  _179
REMARK   68  A    between atoms: _179  and  _180
REMARK   69  A    between atoms: _179  and  _182
REMARK   70  A    between atoms: _182  and  _183
REMARK   71  A    between atoms: _189  and  _191
REMARK   72  A    between atoms: _191  and  _192
REMARK   73  A    between atoms: _191  and  _194
REMARK   74  A    between atoms: _194  and  _195
REMARK   75  A    between atoms: _195  and  _196
REMARK   76  A    between atoms: _199  and  _201
REMARK   77  A    between atoms: _201  and  _202
REMARK   78  A    between atoms: _201  and  _204
REMARK   79  A    between atoms: _204  and  _205
REMARK   80  A    between atoms: _205  and  _206
REMARK   81  A    between atoms: _206  and  _207
REMARK   82  A    between atoms: _216  and  _218
REMARK   83  A    between atoms: _218  and  _219
REMARK   84  A    between atoms: _218  and  _221
REMARK   85  A    between atoms: _221  and  _222
REMARK   86  A    between atoms: _222  and  _223
REMARK   87  A    between atoms: _226  and  _228
REMARK   88  A    between atoms: _228  and  _229
REMARK   89  A    between atoms: _228  and  _231
REMARK   90  A    between atoms: _231  and  _232
REMARK   91  A    between atoms: _237  and  _239
REMARK   92  A    between atoms: _239  and  _240
REMARK   93  A    between atoms: _239  and  _242
REMARK   94  A    between atoms: _242  and  _243
REMARK   95  A    between atoms: _246  and  _248
REMARK   96  A    between atoms: _248  and  _249
REMARK   97  A    between atoms: _248  and  _251
REMARK   98  A    between atoms: _251  and  _252
REMARK   99  A    between atoms: _255  and  _257
REMARK  100  A    between atoms: _257  and  _258
REMARK  101  A    between atoms: _257  and  _260
REMARK  102  A    between atoms: _260  and  _261
REMARK  103  A    between atoms: _266  and  _268
REMARK  104  A    between atoms: _268  and  _269
REMARK  105  A    between atoms: _268  and  _271
REMARK  106  A    between atoms: _271  and  _272
REMARK  107  A    between atoms: _277  and  _278
REMARK  108  A    between atoms: _280  and  _282
REMARK  109  A    between atoms: _282  and  _283
REMARK  110  A    between atoms: _282  and  _285
REMARK  111  A    between atoms: _285  and  _286
REMARK  112  A    between atoms: _289  and  _291
REMARK  113  A    between atoms: _291  and  _292
REMARK  114  A    between atoms: _291  and  _294
REMARK  115  A    between atoms: _294  and  _295
REMARK  116  A    between atoms: _300  and  _302
REMARK  117  A    between atoms: _302  and  _303
REMARK  118  A    between atoms: _302  and  _305
REMARK  119  A    between atoms: _305  and  _306
REMARK  120  A    between atoms: _311  and  _313
REMARK  121  A    between atoms: _313  and  _314
REMARK  122  A    between atoms: _313  and  _316
REMARK  123  A    between atoms: _316  and  _317
REMARK  124  A    between atoms: _320  and  _322
REMARK  125  A    between atoms: _322  and  _323
REMARK  126  A    between atoms: _322  and  _325
REMARK  127  A    between atoms: _328  and  _330
REMARK  128  A    between atoms: _330  and  _331
REMARK  129  A    between atoms: _330  and  _333
REMARK  130  A    between atoms: _333  and  _334
REMARK  131  A    between atoms: _337  and  _339
REMARK  132  A    between atoms: _339  and  _340
REMARK  133  A    between atoms: _339  and  _342
REMARK  134  A    between atoms: _342  and  _343
REMARK  135  A    between atoms: _343  and  _344
REMARK  136  A    between atoms: _347  and  _349
REMARK  137  A    between atoms: _349  and  _350
REMARK  138  A    between atoms: _353  and  _355
REMARK  139  A    between atoms: _355  and  _356
REMARK  140  A    between atoms: _355  and  _358
REMARK  141  A    between atoms: _358  and  _359
REMARK  142  A    between atoms: _362  and  _364
REMARK  143  A    between atoms: _364  and  _365
REMARK  144  A    between atoms: _364  and  _367
REMARK  145  A    between atoms: _367  and  _368
REMARK  146  A    between atoms: _368  and  _369
REMARK  147  A    between atoms: _372  and  _374
REMARK  148  A    between atoms: _374  and  _375
REMARK  149  A    between atoms: _374  and  _377
REMARK  150  A    between atoms: _377  and  _378
REMARK  151  A    between atoms: _378  and  _379
REMARK  152  A    between atoms: _379  and  _380
REMARK  153  A    between atoms: _389  and  _391
REMARK  154  A    between atoms: _391  and  _392
REMARK  155  A    between atoms: _391  and  _394
REMARK  156  A    between atoms: _394  and  _395
REMARK  157  A    between atoms: _405  and  _407
REMARK  158  A    between atoms: _407  and  _408
REMARK  159  A    between atoms: _407  and  _410
REMARK  160  A    between atoms: _410  and  _411
REMARK  161  A    between atoms: _416  and  _418
REMARK  162  A    between atoms: _418  and  _419
REMARK  163  A    between atoms: _421  and  _423
REMARK  164  A    between atoms: _423  and  _424
REMARK  165  A    between atoms: _423  and  _426
REMARK  166  A    between atoms: _429  and  _431
REMARK  167  A    between atoms: _431  and  _432
REMARK  168  A    between atoms: _435  and  _437
REMARK  169  A    between atoms: _437  and  _438
REMARK  170  A    between atoms: _437  and  _440
REMARK  171  A    between atoms: _440  and  _441
REMARK  172  A    between atoms: _446  and  _448
REMARK  173  A    between atoms: _448  and  _449
REMARK  174  A    between atoms: _448  and  _451
REMARK  175  A    between atoms: _451  and  _452
REMARK  176  A    between atoms: _452  and  _453
REMARK  177  A    between atoms: _453  and  _454
REMARK  178  A    between atoms: _454  and  _455
REMARK  179  A    between atoms: _459  and  _461
REMARK  180  A    between atoms: _461  and  _462
REMARK  181  A    between atoms: _461  and  _464
REMARK  182  A    between atoms: _464  and  _465
REMARK  183  A    between atoms: _470  and  _472
REMARK  184  A    between atoms: _472  and  _473
REMARK  185  A    between atoms: _475  and  _477
REMARK  186  A    between atoms: _477  and  _478
REMARK  187  A    between atoms: _477  and  _480
REMARK  188  A    between atoms: _480  and  _481
REMARK  189  A    between atoms: _481  and  _482
REMARK  190  A    between atoms: _482  and  _483
REMARK  191  A    between atoms: _483  and  _484
REMARK  192  A    between atoms: _488  and  _490
REMARK  193  A    between atoms: _490  and  _491
REMARK  194  A    between atoms: _490  and  _493
REMARK  195  A    between atoms: _493  and  _494
REMARK  196  A    between atoms: _494  and  _495
REMARK  197  A    between atoms: _495  and  _496
REMARK  198  A    between atoms: _505  and  _507
REMARK  199  A    between atoms: _507  and  _508
REMARK  200  A    between atoms: _507  and  _510
REMARK  201  A    between atoms: _510  and  _511
REMARK  202  A    between atoms: _516  and  _517
REMARK  203  A    between atoms: _519  and  _521
REMARK  204  A    between atoms: _521  and  _522
REMARK  205  A    between atoms: _521  and  _524
REMARK  206  A    between atoms: _524  and  _525
REMARK  207  A    between atoms: _525  and  _526
REMARK  208  A    between atoms: _526  and  _527
REMARK  209  A    between atoms: _527  and  _528
REMARK  210  A    between atoms: _532  and  _534
REMARK  211  A    between atoms: _534  and  _535
REMARK  212  A    between atoms: _534  and  _537
REMARK  213  A    between atoms: _537  and  _538
REMARK  214  A    between atoms: _540  and  _542
REMARK  215  A    between atoms: _542  and  _543
REMARK  216  A    between atoms: _542  and  _545
REMARK  217  A    between atoms: _545  and  _546
REMARK  218  A    between atoms: _549  and  _551
REMARK  219  A    between atoms: _551  and  _552
REMARK  220  A    between atoms: _551  and  _554
REMARK  221  A    between atoms: _554  and  _555
REMARK  222  A    between atoms: _555  and  _556
REMARK  223  A    between atoms: _559  and  _561
REMARK  224  A    between atoms: _561  and  _562
REMARK  225  A    between atoms: _565  and  _567
REMARK  226  A    between atoms: _567  and  _568
REMARK  227  A    between atoms: _567  and  _570
REMARK  228  A    between atoms: _570  and  _571
REMARK  229  A    between atoms: _573  and  _575
REMARK  230  A    between atoms: _575  and  _576
REMARK  231  A    between atoms: _578  and  _580
REMARK  232  A    between atoms: _580  and  _581
REMARK  233  A    between atoms: _580  and  _583
REMARK  234  A    between atoms: _583  and  _584
REMARK  235  A    between atoms: _587  and  _589
REMARK  236  A    between atoms: _589  and  _590
REMARK  237  A    between atoms: _592  and  _594
REMARK  238  A    between atoms: _594  and  _595
REMARK  239  A    between atoms: _594  and  _597
REMARK  240  A    between atoms: _597  and  _598
REMARK  241  A    between atoms: _603  and  _605
REMARK  242  A    between atoms: _605  and  _606
REMARK  243  A    between atoms: _605  and  _608
REMARK  244  A    between atoms: _608  and  _609
REMARK  245  A    between atoms: _609  and  _610
REMARK  246  A    between atoms: _617  and  _618
REMARK  247  A    between atoms: _618  and  _634
REMARK  248  A    between atoms: _619  and  _621
REMARK  249  A    between atoms: _621  and  _622
REMARK  250  A    between atoms: _622  and  _623
REMARK  251  A    between atoms: _627  and  _629
REMARK  252  A    between atoms: _629  and  _630
REMARK  253  A    between atoms: _629  and  _637
REMARK  254  A    between atoms: _630  and  _631
REMARK  255  A    between atoms: _631  and  _632
REMARK  256  A    between atoms: _632  and  _633
REMARK  257  A    between atoms: _633  and  _634
REMARK  258  A    between atoms: _639  and  _641
REMARK  259  A    between atoms: _641  and  _642
REMARK  260  A    between atoms: _641  and  _644
REMARK  261  A    between atoms: _644  and  _645
REMARK  262  A    between atoms: _648  and  _650
REMARK  263  A    between atoms: _650  and  _651
REMARK  264  A    between atoms: _653  and  _655
REMARK  265  A    between atoms: _655  and  _656
REMARK  266  A    between atoms: _659  and  _661
REMARK  267  A    between atoms: _661  and  _662
REMARK  268  A    between atoms: _661  and  _664
REMARK  269  A    between atoms: _664  and  _665
REMARK  270  A    between atoms: _670  and  _671
REMARK                            x       y       z     vdW  Elec       q    Type
REMARK                         _______ _______ _______ _____ _____    ______ ____
ROOT
ATOM      1  O   HOH     1      35.893  23.964  37.552  0.00  0.00    +0.000 OA
ENDROOT
TORSDOF 0
REMARK  Name = ../refined-set-2016/3g2k/3g2k_pocket.pdb
REMARK  270 active torsions:
REMARK  status: ('A' for Active; 'I' for Inactive)
REMARK    1  A    between atoms: _1  and  _3
REMARK    2  A    between atoms: _3  and  _4
REMARK    3  A    between atoms: _3  and  _6
REMARK    4  A    between atoms: _6  and  _7
REMARK    5  A    between atoms: _12  and  _13
REMARK    6  A    between atoms: _15  and  _17
REMARK    7  A    between atoms: _17  and  _18
REMARK    8  A    between atoms: _17  and  _20
REMARK    9  A    between atoms: _20  and  _21
REMARK   10  A    between atoms: _24  and  _26
REMARK   11  A    between atoms: _26  and  _27
REMARK   12  A    between atoms: _26  and  _29
REMARK   13  A    between atoms: _29  and  _30
REMARK   14  A    between atoms: _30  and  _31
REMARK   15  A    between atoms: _34  and  _36
REMARK   16  A    between atoms: _36  and  _37
REMARK   17  A    between atoms: _36  and  _39
REMARK   18  A    between atoms: _39  and  _40
REMARK   19  A    between atoms: _45  and  _47
REMARK   20  A    between atoms: _47  and  _48
REMARK   21  A    between atoms: _50  and  _52
REMARK   22  A    between atoms: _52  and  _53
REMARK   23  A    between atoms: _55  and  _57
REMARK   24  A    between atoms: _57  and  _58
REMARK   25  A    between atoms: _57  and  _60
REMARK   26  A    between atoms: _60  and  _61
REMARK   27  A    between atoms: _64  and  _66
REMARK   28  A    between atoms: _66  and  _67
REMARK   29  A    between atoms: _69  and  _71
REMARK   30  A    between atoms: _71  and  _72
REMARK   31  A    between atoms: _71  and  _74
REMARK   32  A    between atoms: _74  and  _75
REMARK   33  A    between atoms: _75  and  _76
REMARK   34  A    between atoms: _76  and  _77
REMARK   35  A    between atoms: _86  and  _88
REMARK   36  A    between atoms: _88  and  _89
REMARK   37  A    between atoms: _88  and  _91
REMARK   38  A    between atoms: _91  and  _92
REMARK   39  A    between atoms: _95  and  _97
REMARK   40  A    between atoms: _97  and  _98
REMARK   41  A    between atoms: _101  and  _103
REMARK   42  A    between atoms: _103  and  _104
REMARK   43  A    between atoms: _103  and  _106
REMARK   44  A    between atoms: _106  and  _107
REMARK   45  A    between atoms: _113  and  _115
REMARK   46  A    between atoms: _115  and  _116
REMARK   47  A    between atoms: _115  and  _118
REMARK   48  A    between atoms: _118  and  _119
REMARK   49  A    between atoms: _124  and  _125
REMARK   50  A    between atoms: _128  and  _129
REMARK   51  A    between atoms: _134  and  _136
REMARK   52  A    between atoms: _136  and  _137
REMARK   53  A    between atoms: _136  and  _139
REMARK   54  A    between atoms: _139  and  _140
REMARK   55  A    between atoms: _145  and  _147
REMARK   56  A    between atoms: _147  and  _148
REMARK   57  A    between atoms: _147  and  _150
REMARK   58  A    between atoms: _150  and  _151
REMARK   59  A    between atoms: _154  and  _156
REMARK   60  A    between atoms: _156  and  _157
REMARK   61  A    between atoms: _156  and  _159
REMARK   62  A    between atoms: _159  and  _160
REMARK   63  A    between atoms: _165  and  _167
REMARK   64  A    between atoms: _167  and  _168
REMARK   65  A    between atoms: _167  and  _170
REMARK   66  A    between atoms: _170  and  _171
REMARK   67  A    between atoms: _177  and  _179
REMARK   68  A    between atoms: _179  and  _180
REMARK   69  A    between atoms: _179  and  _182
REMARK   70  A    between atoms: _182  and  _183
REMARK   71  A    between atoms: _189  and  _191
REMARK   72  A    between atoms: _191  and  _192
REMARK   73  A    between atoms: _191  and  _194
REMARK   74  A    between atoms: _194  and  _195
REMARK   75  A    between atoms: _195  and  _196
REMARK   76  A    between atoms: _199  and  _201
REMARK   77  A    between atoms: _201  and  _202
REMARK   78  A    between atoms: _201  and  _204
REMARK   79  A    between atoms: _204  and  _205
REMARK   80  A    between atoms: _205  and  _206
REMARK   81  A    between atoms: _206  and  _207
REMARK   82  A    between atoms: _216  and  _218
REMARK   83  A    between atoms: _218  and  _219
REMARK   84  A    between atoms: _218  and  _221
REMARK   85  A    between atoms: _221  and  _222
REMARK   86  A    between atoms: _222  and  _223
REMARK   87  A    between atoms: _226  and  _228
REMARK   88  A    between atoms: _228  and  _229
REMARK   89  A    between atoms: _228  and  _231
REMARK   90  A    between atoms: _231  and  _232
REMARK   91  A    between atoms: _237  and  _239
REMARK   92  A    between atoms: _239  and  _240
REMARK   93  A    between atoms: _239  and  _242
REMARK   94  A    between atoms: _242  and  _243
REMARK   95  A    between atoms: _246  and  _248
REMARK   96  A    between atoms: _248  and  _249
REMARK   97  A    between atoms: _248  and  _251
REMARK   98  A    between atoms: _251  and  _252
REMARK   99  A    between atoms: _255  and  _257
REMARK  100  A    between atoms: _257  and  _258
REMARK  101  A    between atoms: _257  and  _260
REMARK  102  A    between atoms: _260  and  _261
REMARK  103  A    between atoms: _266  and  _268
REMARK  104  A    between atoms: _268  and  _269
REMARK  105  A    between atoms: _268  and  _271
REMARK  106  A    between atoms: _271  and  _272
REMARK  107  A    between atoms: _277  and  _278
REMARK  108  A    between atoms: _280  and  _282
REMARK  109  A    between atoms: _282  and  _283
REMARK  110  A    between atoms: _282  and  _285
REMARK  111  A    between atoms: _285  and  _286
REMARK  112  A    between atoms: _289  and  _291
REMARK  113  A    between atoms: _291  and  _292
REMARK  114  A    between atoms: _291  and  _294
REMARK  115  A    between atoms: _294  and  _295
REMARK  116  A    between atoms: _300  and  _302
REMARK  117  A    between atoms: _302  and  _303
REMARK  118  A    between atoms: _302  and  _305
REMARK  119  A    between atoms: _305  and  _306
REMARK  120  A    between atoms: _311  and  _313
REMARK  121  A    between atoms: _313  and  _314
REMARK  122  A    between atoms: _313  and  _316
REMARK  123  A    between atoms: _316  and  _317
REMARK  124  A    between atoms: _320  and  _322
REMARK  125  A    between atoms: _322  and  _323
REMARK  126  A    between atoms: _322  and  _325
REMARK  127  A    between atoms: _328  and  _330
REMARK  128  A    between atoms: _330  and  _331
REMARK  129  A    between atoms: _330  and  _333
REMARK  130  A    between atoms: _333  and  _334
REMARK  131  A    between atoms: _337  and  _339
REMARK  132  A    between atoms: _339  and  _340
REMARK  133  A    between atoms: _339  and  _342
REMARK  134  A    between atoms: _342  and  _343
REMARK  135  A    between atoms: _343  and  _344
REMARK  136  A    between atoms: _347  and  _349
REMARK  137  A    between atoms: _349  and  _350
REMARK  138  A    between atoms: _353  and  _355
REMARK  139  A    between atoms: _355  and  _356
REMARK  140  A    between atoms: _355  and  _358
REMARK  141  A    between atoms: _358  and  _359
REMARK  142  A    between atoms: _362  and  _364
REMARK  143  A    between atoms: _364  and  _365
REMARK  144  A    between atoms: _364  and  _367
REMARK  145  A    between atoms: _367  and  _368
REMARK  146  A    between atoms: _368  and  _369
REMARK  147  A    between atoms: _372  and  _374
REMARK  148  A    between atoms: _374  and  _375
REMARK  149  A    between atoms: _374  and  _377
REMARK  150  A    between atoms: _377  and  _378
REMARK  151  A    between atoms: _378  and  _379
REMARK  152  A    between atoms: _379  and  _380
REMARK  153  A    between atoms: _389  and  _391
REMARK  154  A    between atoms: _391  and  _392
REMARK  155  A    between atoms: _391  and  _394
REMARK  156  A    between atoms: _394  and  _395
REMARK  157  A    between atoms: _405  and  _407
REMARK  158  A    between atoms: _407  and  _408
REMARK  159  A    between atoms: _407  and  _410
REMARK  160  A    between atoms: _410  and  _411
REMARK  161  A    between atoms: _416  and  _418
REMARK  162  A    between atoms: _418  and  _419
REMARK  163  A    between atoms: _421  and  _423
REMARK  164  A    between atoms: _423  and  _424
REMARK  165  A    between atoms: _423  and  _426
REMARK  166  A    between atoms: _429  and  _431
REMARK  167  A    between atoms: _431  and  _432
REMARK  168  A    between atoms: _435  and  _437
REMARK  169  A    between atoms: _437  and  _438
REMARK  170  A    between atoms: _437  and  _440
REMARK  171  A    between atoms: _440  and  _441
REMARK  172  A    between atoms: _446  and  _448
REMARK  173  A    between atoms: _448  and  _449
REMARK  174  A    between atoms: _448  and  _451
REMARK  175  A    between atoms: _451  and  _452
REMARK  176  A    between atoms: _452  and  _453
REMARK  177  A    between atoms: _453  and  _454
REMARK  178  A    between atoms: _454  and  _455
REMARK  179  A    between atoms: _459  and  _461
REMARK  180  A    between atoms: _461  and  _462
REMARK  181  A    between atoms: _461  and  _464
REMARK  182  A    between atoms: _464  and  _465
REMARK  183  A    between atoms: _470  and  _472
REMARK  184  A    between atoms: _472  and  _473
REMARK  185  A    between atoms: _475  and  _477
REMARK  186  A    between atoms: _477  and  _478
REMARK  187  A    between atoms: _477  and  _480
REMARK  188  A    between atoms: _480  and  _481
REMARK  189  A    between atoms: _481  and  _482
REMARK  190  A    between atoms: _482  and  _483
REMARK  191  A    between atoms: _483  and  _484
REMARK  192  A    between atoms: _488  and  _490
REMARK  193  A    between atoms: _490  and  _491
REMARK  194  A    between atoms: _490  and  _493
REMARK  195  A    between atoms: _493  and  _494
REMARK  196  A    between atoms: _494  and  _495
REMARK  197  A    between atoms: _495  and  _496
REMARK  198  A    between atoms: _505  and  _507
REMARK  199  A    between atoms: _507  and  _508
REMARK  200  A    between atoms: _507  and  _510
REMARK  201  A    between atoms: _510  and  _511
REMARK  202  A    between atoms: _516  and  _517
REMARK  203  A    between atoms: _519  and  _521
REMARK  204  A    between atoms: _521  and  _522
REMARK  205  A    between atoms: _521  and  _524
REMARK  206  A    between atoms: _524  and  _525
REMARK  207  A    between atoms: _525  and  _526
REMARK  208  A    between atoms: _526  and  _527
REMARK  209  A    between atoms: _527  and  _528
REMARK  210  A    between atoms: _532  and  _534
REMARK  211  A    between atoms: _534  and  _535
REMARK  212  A    between atoms: _534  and  _537
REMARK  213  A    between atoms: _537  and  _538
REMARK  214  A    between atoms: _540  and  _542
REMARK  215  A    between atoms: _542  and  _543
REMARK  216  A    between atoms: _542  and  _545
REMARK  217  A    between atoms: _545  and  _546
REMARK  218  A    between atoms: _549  and  _551
REMARK  219  A    between atoms: _551  and  _552
REMARK  220  A    between atoms: _551  and  _554
REMARK  221  A    between atoms: _554  and  _555
REMARK  222  A    between atoms: _555  and  _556
REMARK  223  A    between atoms: _559  and  _561
REMARK  224  A    between atoms: _561  and  _562
REMARK  225  A    between atoms: _565  and  _567
REMARK  226  A    between atoms: _567  and  _568
REMARK  227  A    between atoms: _567  and  _570
REMARK  228  A    between atoms: _570  and  _571
REMARK  229  A    between atoms: _573  and  _575
REMARK  230  A    between atoms: _575  and  _576
REMARK  231  A    between atoms: _578  and  _580
REMARK  232  A    between atoms: _580  and  _581
REMARK  233  A    between atoms: _580  and  _583
REMARK  234  A    between atoms: _583  and  _584
REMARK  235  A    between atoms: _587  and  _589
REMARK  236  A    between atoms: _589  and  _590
REMARK  237  A    between atoms: _592  and  _594
REMARK  238  A    between atoms: _594  and  _595
REMARK  239  A    between atoms: _594  and  _597
REMARK  240  A    between atoms: _597  and  _598
REMARK  241  A    between atoms: _603  and  _605
REMARK  242  A    between atoms: _605  and  _606
REMARK  243  A    between atoms: _605  and  _608
REMARK  244  A    between atoms: _608  and  _609
REMARK  245  A    between atoms: _609  and  _610
REMARK  246  A    between atoms: _617  and  _618
REMARK  247  A    between atoms: _618  and  _634
REMARK  248  A    between atoms: _619  and  _621
REMARK  249  A    between atoms: _621  and  _622
REMARK  250  A    between atoms: _622  and  _623
REMARK  251  A    between atoms: _627  and  _629
REMARK  252  A    between atoms: _629  and  _630
REMARK  253  A    between atoms: _629  and  _637
REMARK  254  A    between atoms: _630  and  _631
REMARK  255  A    between atoms: _631  and  _632
REMARK  256  A    between atoms: _632  and  _633
REMARK  257  A    between atoms: _633  and  _634
REMARK  258  A    between atoms: _639  and  _641
REMARK  259  A    between atoms: _641  and  _642
REMARK  260  A    between atoms: _641  and  _644
REMARK  261  A    between atoms: _644  and  _645
REMARK  262  A    between atoms: _648  and  _650
REMARK  263  A    between atoms: _650  and  _651
REMARK  264  A    between atoms: _653  and  _655
REMARK  265  A    between atoms: _655  and  _656
REMARK  266  A    between atoms: _659  and  _661
REMARK  267  A    between atoms: _661  and  _662
REMARK  268  A    between atoms: _661  and  _664
REMARK  269  A    between atoms: _664  and  _665
REMARK  270  A    between atoms: _670  and  _671
REMARK                            x       y       z     vdW  Elec       q    Type
REMARK                         _______ _______ _______ _____ _____    ______ ____
ROOT
ATOM      1  O   HOH     1      33.986  32.930  31.614  0.00  0.00    +0.000 OA
ENDROOT
TORSDOF 0
REMARK  Name = ../refined-set-2016/3g2k/3g2k_pocket.pdb
REMARK  270 active torsions:
REMARK  status: ('A' for Active; 'I' for Inactive)
REMARK    1  A    between atoms: _1  and  _3
REMARK    2  A    between atoms: _3  and  _4
REMARK    3  A    between atoms: _3  and  _6
REMARK    4  A    between atoms: _6  and  _7
REMARK    5  A    between atoms: _12  and  _13
REMARK    6  A    between atoms: _15  and  _17
REMARK    7  A    between atoms: _17  and  _18
REMARK    8  A    between atoms: _17  and  _20
REMARK    9  A    between atoms: _20  and  _21
REMARK   10  A    between atoms: _24  and  _26
REMARK   11  A    between atoms: _26  and  _27
REMARK   12  A    between atoms: _26  and  _29
REMARK   13  A    between atoms: _29  and  _30
REMARK   14  A    between atoms: _30  and  _31
REMARK   15  A    between atoms: _34  and  _36
REMARK   16  A    between atoms: _36  and  _37
REMARK   17  A    between atoms: _36  and  _39
REMARK   18  A    between atoms: _39  and  _40
REMARK   19  A    between atoms: _45  and  _47
REMARK   20  A    between atoms: _47  and  _48
REMARK   21  A    between atoms: _50  and  _52
REMARK   22  A    between atoms: _52  and  _53
REMARK   23  A    between atoms: _55  and  _57
REMARK   24  A    between atoms: _57  and  _58
REMARK   25  A    between atoms: _57  and  _60
REMARK   26  A    between atoms: _60  and  _61
REMARK   27  A    between atoms: _64  and  _66
REMARK   28  A    between atoms: _66  and  _67
REMARK   29  A    between atoms: _69  and  _71
REMARK   30  A    between atoms: _71  and  _72
REMARK   31  A    between atoms: _71  and  _74
REMARK   32  A    between atoms: _74  and  _75
REMARK   33  A    between atoms: _75  and  _76
REMARK   34  A    between atoms: _76  and  _77
REMARK   35  A    between atoms: _86  and  _88
REMARK   36  A    between atoms: _88  and  _89
REMARK   37  A    between atoms: _88  and  _91
REMARK   38  A    between atoms: _91  and  _92
REMARK   39  A    between atoms: _95  and  _97
REMARK   40  A    between atoms: _97  and  _98
REMARK   41  A    between atoms: _101  and  _103
REMARK   42  A    between atoms: _103  and  _104
REMARK   43  A    between atoms: _103  and  _106
REMARK   44  A    between atoms: _106  and  _107
REMARK   45  A    between atoms: _113  and  _115
REMARK   46  A    between atoms: _115  and  _116
REMARK   47  A    between atoms: _115  and  _118
REMARK   48  A    between atoms: _118  and  _119
REMARK   49  A    between atoms: _124  and  _125
REMARK   50  A    between atoms: _128  and  _129
REMARK   51  A    between atoms: _134  and  _136
REMARK   52  A    between atoms: _136  and  _137
REMARK   53  A    between atoms: _136  and  _139
REMARK   54  A    between atoms: _139  and  _140
REMARK   55  A    between atoms: _145  and  _147
REMARK   56  A    between atoms: _147  and  _148
REMARK   57  A    between atoms: _147  and  _150
REMARK   58  A    between atoms: _150  and  _151
REMARK   59  A    between atoms: _154  and  _156
REMARK   60  A    between atoms: _156  and  _157
REMARK   61  A    between atoms: _156  and  _159
REMARK   62  A    between atoms: _159  and  _160
REMARK   63  A    between atoms: _165  and  _167
REMARK   64  A    between atoms: _167  and  _168
REMARK   65  A    between atoms: _167  and  _170
REMARK   66  A    between atoms: _170  and  _171
REMARK   67  A    between atoms: _177  and  _179
REMARK   68  A    between atoms: _179  and  _180
REMARK   69  A    between atoms: _179  and  _182
REMARK   70  A    between atoms: _182  and  _183
REMARK   71  A    between atoms: _189  and  _191
REMARK   72  A    between atoms: _191  and  _192
REMARK   73  A    between atoms: _191  and  _194
REMARK   74  A    between atoms: _194  and  _195
REMARK   75  A    between atoms: _195  and  _196
REMARK   76  A    between atoms: _199  and  _201
REMARK   77  A    between atoms: _201  and  _202
REMARK   78  A    between atoms: _201  and  _204
REMARK   79  A    between atoms: _204  and  _205
REMARK   80  A    between atoms: _205  and  _206
REMARK   81  A    between atoms: _206  and  _207
REMARK   82  A    between atoms: _216  and  _218
REMARK   83  A    between atoms: _218  and  _219
REMARK   84  A    between atoms: _218  and  _221
REMARK   85  A    between atoms: _221  and  _222
REMARK   86  A    between atoms: _222  and  _223
REMARK   87  A    between atoms: _226  and  _228
REMARK   88  A    between atoms: _228  and  _229
REMARK   89  A    between atoms: _228  and  _231
REMARK   90  A    between atoms: _231  and  _232
REMARK   91  A    between atoms: _237  and  _239
REMARK   92  A    between atoms: _239  and  _240
REMARK   93  A    between atoms: _239  and  _242
REMARK   94  A    between atoms: _242  and  _243
REMARK   95  A    between atoms: _246  and  _248
REMARK   96  A    between atoms: _248  and  _249
REMARK   97  A    between atoms: _248  and  _251
REMARK   98  A    between atoms: _251  and  _252
REMARK   99  A    between atoms: _255  and  _257
REMARK  100  A    between atoms: _257  and  _258
REMARK  101  A    between atoms: _257  and  _260
REMARK  102  A    between atoms: _260  and  _261
REMARK  103  A    between atoms: _266  and  _268
REMARK  104  A    between atoms: _268  and  _269
REMARK  105  A    between atoms: _268  and  _271
REMARK  106  A    between atoms: _271  and  _272
REMARK  107  A    between atoms: _277  and  _278
REMARK  108  A    between atoms: _280  and  _282
REMARK  109  A    between atoms: _282  and  _283
REMARK  110  A    between atoms: _282  and  _285
REMARK  111  A    between atoms: _285  and  _286
REMARK  112  A    between atoms: _289  and  _291
REMARK  113  A    between atoms: _291  and  _292
REMARK  114  A    between atoms: _291  and  _294
REMARK  115  A    between atoms: _294  and  _295
REMARK  116  A    between atoms: _300  and  _302
REMARK  117  A    between atoms: _302  and  _303
REMARK  118  A    between atoms: _302  and  _305
REMARK  119  A    between atoms: _305  and  _306
REMARK  120  A    between atoms: _311  and  _313
REMARK  121  A    between atoms: _313  and  _314
REMARK  122  A    between atoms: _313  and  _316
REMARK  123  A    between atoms: _316  and  _317
REMARK  124  A    between atoms: _320  and  _322
REMARK  125  A    between atoms: _322  and  _323
REMARK  126  A    between atoms: _322  and  _325
REMARK  127  A    between atoms: _328  and  _330
REMARK  128  A    between atoms: _330  and  _331
REMARK  129  A    between atoms: _330  and  _333
REMARK  130  A    between atoms: _333  and  _334
REMARK  131  A    between atoms: _337  and  _339
REMARK  132  A    between atoms: _339  and  _340
REMARK  133  A    between atoms: _339  and  _342
REMARK  134  A    between atoms: _342  and  _343
REMARK  135  A    between atoms: _343  and  _344
REMARK  136  A    between atoms: _347  and  _349
REMARK  137  A    between atoms: _349  and  _350
REMARK  138  A    between atoms: _353  and  _355
REMARK  139  A    between atoms: _355  and  _356
REMARK  140  A    between atoms: _355  and  _358
REMARK  141  A    between atoms: _358  and  _359
REMARK  142  A    between atoms: _362  and  _364
REMARK  143  A    between atoms: _364  and  _365
REMARK  144  A    between atoms: _364  and  _367
REMARK  145  A    between atoms: _367  and  _368
REMARK  146  A    between atoms: _368  and  _369
REMARK  147  A    between atoms: _372  and  _374
REMARK  148  A    between atoms: _374  and  _375
REMARK  149  A    between atoms: _374  and  _377
REMARK  150  A    between atoms: _377  and  _378
REMARK  151  A    between atoms: _378  and  _379
REMARK  152  A    between atoms: _379  and  _380
REMARK  153  A    between atoms: _389  and  _391
REMARK  154  A    between atoms: _391  and  _392
REMARK  155  A    between atoms: _391  and  _394
REMARK  156  A    between atoms: _394  and  _395
REMARK  157  A    between atoms: _405  and  _407
REMARK  158  A    between atoms: _407  and  _408
REMARK  159  A    between atoms: _407  and  _410
REMARK  160  A    between atoms: _410  and  _411
REMARK  161  A    between atoms: _416  and  _418
REMARK  162  A    between atoms: _418  and  _419
REMARK  163  A    between atoms: _421  and  _423
REMARK  164  A    between atoms: _423  and  _424
REMARK  165  A    between atoms: _423  and  _426
REMARK  166  A    between atoms: _429  and  _431
REMARK  167  A    between atoms: _431  and  _432
REMARK  168  A    between atoms: _435  and  _437
REMARK  169  A    between atoms: _437  and  _438
REMARK  170  A    between atoms: _437  and  _440
REMARK  171  A    between atoms: _440  and  _441
REMARK  172  A    between atoms: _446  and  _448
REMARK  173  A    between atoms: _448  and  _449
REMARK  174  A    between atoms: _448  and  _451
REMARK  175  A    between atoms: _451  and  _452
REMARK  176  A    between atoms: _452  and  _453
REMARK  177  A    between atoms: _453  and  _454
REMARK  178  A    between atoms: _454  and  _455
REMARK  179  A    between atoms: _459  and  _461
REMARK  180  A    between atoms: _461  and  _462
REMARK  181  A    between atoms: _461  and  _464
REMARK  182  A    between atoms: _464  and  _465
REMARK  183  A    between atoms: _470  and  _472
REMARK  184  A    between atoms: _472  and  _473
REMARK  185  A    between atoms: _475  and  _477
REMARK  186  A    between atoms: _477  and  _478
REMARK  187  A    between atoms: _477  and  _480
REMARK  188  A    between atoms: _480  and  _481
REMARK  189  A    between atoms: _481  and  _482
REMARK  190  A    between atoms: _482  and  _483
REMARK  191  A    between atoms: _483  and  _484
REMARK  192  A    between atoms: _488  and  _490
REMARK  193  A    between atoms: _490  and  _491
REMARK  194  A    between atoms: _490  and  _493
REMARK  195  A    between atoms: _493  and  _494
REMARK  196  A    between atoms: _494  and  _495
REMARK  197  A    between atoms: _495  and  _496
REMARK  198  A    between atoms: _505  and  _507
REMARK  199  A    between atoms: _507  and  _508
REMARK  200  A    between atoms: _507  and  _510
REMARK  201  A    between atoms: _510  and  _511
REMARK  202  A    between atoms: _516  and  _517
REMARK  203  A    between atoms: _519  and  _521
REMARK  204  A    between atoms: _521  and  _522
REMARK  205  A    between atoms: _521  and  _524
REMARK  206  A    between atoms: _524  and  _525
REMARK  207  A    between atoms: _525  and  _526
REMARK  208  A    between atoms: _526  and  _527
REMARK  209  A    between atoms: _527  and  _528
REMARK  210  A    between atoms: _532  and  _534
REMARK  211  A    between atoms: _534  and  _535
REMARK  212  A    between atoms: _534  and  _537
REMARK  213  A    between atoms: _537  and  _538
REMARK  214  A    between atoms: _540  and  _542
REMARK  215  A    between atoms: _542  and  _543
REMARK  216  A    between atoms: _542  and  _545
REMARK  217  A    between atoms: _545  and  _546
REMARK  218  A    between atoms: _549  and  _551
REMARK  219  A    between atoms: _551  and  _552
REMARK  220  A    between atoms: _551  and  _554
REMARK  221  A    between atoms: _554  and  _555
REMARK  222  A    between atoms: _555  and  _556
REMARK  223  A    between atoms: _559  and  _561
REMARK  224  A    between atoms: _561  and  _562
REMARK  225  A    between atoms: _565  and  _567
REMARK  226  A    between atoms: _567  and  _568
REMARK  227  A    between atoms: _567  and  _570
REMARK  228  A    between atoms: _570  and  _571
REMARK  229  A    between atoms: _573  and  _575
REMARK  230  A    between atoms: _575  and  _576
REMARK  231  A    between atoms: _578  and  _580
REMARK  232  A    between atoms: _580  and  _581
REMARK  233  A    between atoms: _580  and  _583
REMARK  234  A    between atoms: _583  and  _584
REMARK  235  A    between atoms: _587  and  _589
REMARK  236  A    between atoms: _589  and  _590
REMARK  237  A    between atoms: _592  and  _594
REMARK  238  A    between atoms: _594  and  _595
REMARK  239  A    between atoms: _594  and  _597
REMARK  240  A    between atoms: _597  and  _598
REMARK  241  A    between atoms: _603  and  _605
REMARK  242  A    between atoms: _605  and  _606
REMARK  243  A    between atoms: _605  and  _608
REMARK  244  A    between atoms: _608  and  _609
REMARK  245  A    between atoms: _609  and  _610
REMARK  246  A    between atoms: _617  and  _618
REMARK  247  A    between atoms: _618  and  _634
REMARK  248  A    between atoms: _619  and  _621
REMARK  249  A    between atoms: _621  and  _622
REMARK  250  A    between atoms: _622  and  _623
REMARK  251  A    between atoms: _627  and  _629
REMARK  252  A    between atoms: _629  and  _630
REMARK  253  A    between atoms: _629  and  _637
REMARK  254  A    between atoms: _630  and  _631
REMARK  255  A    between atoms: _631  and  _632
REMARK  256  A    between atoms: _632  and  _633
REMARK  257  A    between atoms: _633  and  _634
REMARK  258  A    between atoms: _639  and  _641
REMARK  259  A    between atoms: _641  and  _642
REMARK  260  A    between atoms: _641  and  _644
REMARK  261  A    between atoms: _644  and  _645
REMARK  262  A    between atoms: _648  and  _650
REMARK  263  A    between atoms: _650  and  _651
REMARK  264  A    between atoms: _653  and  _655
REMARK  265  A    between atoms: _655  and  _656
REMARK  266  A    between atoms: _659  and  _661
REMARK  267  A    between atoms: _661  and  _662
REMARK  268  A    between atoms: _661  and  _664
REMARK  269  A    between atoms: _664  and  _665
REMARK  270  A    between atoms: _670  and  _671
REMARK                            x       y       z     vdW  Elec       q    Type
REMARK                         _______ _______ _______ _____ _____    ______ ____
ROOT
ATOM      1  O   HOH     1      40.736  28.857  38.085  0.00  0.00    +0.000 OA
ENDROOT
TORSDOF 0
REMARK  Name = ../refined-set-2016/3g2k/3g2k_pocket.pdb
REMARK  270 active torsions:
REMARK  status: ('A' for Active; 'I' for Inactive)
REMARK    1  A    between atoms: _1  and  _3
REMARK    2  A    between atoms: _3  and  _4
REMARK    3  A    between atoms: _3  and  _6
REMARK    4  A    between atoms: _6  and  _7
REMARK    5  A    between atoms: _12  and  _13
REMARK    6  A    between atoms: _15  and  _17
REMARK    7  A    between atoms: _17  and  _18
REMARK    8  A    between atoms: _17  and  _20
REMARK    9  A    between atoms: _20  and  _21
REMARK   10  A    between atoms: _24  and  _26
REMARK   11  A    between atoms: _26  and  _27
REMARK   12  A    between atoms: _26  and  _29
REMARK   13  A    between atoms: _29  and  _30
REMARK   14  A    between atoms: _30  and  _31
REMARK   15  A    between atoms: _34  and  _36
REMARK   16  A    between atoms: _36  and  _37
REMARK   17  A    between atoms: _36  and  _39
REMARK   18  A    between atoms: _39  and  _40
REMARK   19  A    between atoms: _45  and  _47
REMARK   20  A    between atoms: _47  and  _48
REMARK   21  A    between atoms: _50  and  _52
REMARK   22  A    between atoms: _52  and  _53
REMARK   23  A    between atoms: _55  and  _57
REMARK   24  A    between atoms: _57  and  _58
REMARK   25  A    between atoms: _57  and  _60
REMARK   26  A    between atoms: _60  and  _61
REMARK   27  A    between atoms: _64  and  _66
REMARK   28  A    between atoms: _66  and  _67
REMARK   29  A    between atoms: _69  and  _71
REMARK   30  A    between atoms: _71  and  _72
REMARK   31  A    between atoms: _71  and  _74
REMARK   32  A    between atoms: _74  and  _75
REMARK   33  A    between atoms: _75  and  _76
REMARK   34  A    between atoms: _76  and  _77
REMARK   35  A    between atoms: _86  and  _88
REMARK   36  A    between atoms: _88  and  _89
REMARK   37  A    between atoms: _88  and  _91
REMARK   38  A    between atoms: _91  and  _92
REMARK   39  A    between atoms: _95  and  _97
REMARK   40  A    between atoms: _97  and  _98
REMARK   41  A    between atoms: _101  and  _103
REMARK   42  A    between atoms: _103  and  _104
REMARK   43  A    between atoms: _103  and  _106
REMARK   44  A    between atoms: _106  and  _107
REMARK   45  A    between atoms: _113  and  _115
REMARK   46  A    between atoms: _115  and  _116
REMARK   47  A    between atoms: _115  and  _118
REMARK   48  A    between atoms: _118  and  _119
REMARK   49  A    between atoms: _124  and  _125
REMARK   50  A    between atoms: _128  and  _129
REMARK   51  A    between atoms: _134  and  _136
REMARK   52  A    between atoms: _136  and  _137
REMARK   53  A    between atoms: _136  and  _139
REMARK   54  A    between atoms: _139  and  _140
REMARK   55  A    between atoms: _145  and  _147
REMARK   56  A    between atoms: _147  and  _148
REMARK   57  A    between atoms: _147  and  _150
REMARK   58  A    between atoms: _150  and  _151
REMARK   59  A    between atoms: _154  and  _156
REMARK   60  A    between atoms: _156  and  _157
REMARK   61  A    between atoms: _156  and  _159
REMARK   62  A    between atoms: _159  and  _160
REMARK   63  A    between atoms: _165  and  _167
REMARK   64  A    between atoms: _167  and  _168
REMARK   65  A    between atoms: _167  and  _170
REMARK   66  A    between atoms: _170  and  _171
REMARK   67  A    between atoms: _177  and  _179
REMARK   68  A    between atoms: _179  and  _180
REMARK   69  A    between atoms: _179  and  _182
REMARK   70  A    between atoms: _182  and  _183
REMARK   71  A    between atoms: _189  and  _191
REMARK   72  A    between atoms: _191  and  _192
REMARK   73  A    between atoms: _191  and  _194
REMARK   74  A    between atoms: _194  and  _195
REMARK   75  A    between atoms: _195  and  _196
REMARK   76  A    between atoms: _199  and  _201
REMARK   77  A    between atoms: _201  and  _202
REMARK   78  A    between atoms: _201  and  _204
REMARK   79  A    between atoms: _204  and  _205
REMARK   80  A    between atoms: _205  and  _206
REMARK   81  A    between atoms: _206  and  _207
REMARK   82  A    between atoms: _216  and  _218
REMARK   83  A    between atoms: _218  and  _219
REMARK   84  A    between atoms: _218  and  _221
REMARK   85  A    between atoms: _221  and  _222
REMARK   86  A    between atoms: _222  and  _223
REMARK   87  A    between atoms: _226  and  _228
REMARK   88  A    between atoms: _228  and  _229
REMARK   89  A    between atoms: _228  and  _231
REMARK   90  A    between atoms: _231  and  _232
REMARK   91  A    between atoms: _237  and  _239
REMARK   92  A    between atoms: _239  and  _240
REMARK   93  A    between atoms: _239  and  _242
REMARK   94  A    between atoms: _242  and  _243
REMARK   95  A    between atoms: _246  and  _248
REMARK   96  A    between atoms: _248  and  _249
REMARK   97  A    between atoms: _248  and  _251
REMARK   98  A    between atoms: _251  and  _252
REMARK   99  A    between atoms: _255  and  _257
REMARK  100  A    between atoms: _257  and  _258
REMARK  101  A    between atoms: _257  and  _260
REMARK  102  A    between atoms: _260  and  _261
REMARK  103  A    between atoms: _266  and  _268
REMARK  104  A    between atoms: _268  and  _269
REMARK  105  A    between atoms: _268  and  _271
REMARK  106  A    between atoms: _271  and  _272
REMARK  107  A    between atoms: _277  and  _278
REMARK  108  A    between atoms: _280  and  _282
REMARK  109  A    between atoms: _282  and  _283
REMARK  110  A    between atoms: _282  and  _285
REMARK  111  A    between atoms: _285  and  _286
REMARK  112  A    between atoms: _289  and  _291
REMARK  113  A    between atoms: _291  and  _292
REMARK  114  A    between atoms: _291  and  _294
REMARK  115  A    between atoms: _294  and  _295
REMARK  116  A    between atoms: _300  and  _302
REMARK  117  A    between atoms: _302  and  _303
REMARK  118  A    between atoms: _302  and  _305
REMARK  119  A    between atoms: _305  and  _306
REMARK  120  A    between atoms: _311  and  _313
REMARK  121  A    between atoms: _313  and  _314
REMARK  122  A    between atoms: _313  and  _316
REMARK  123  A    between atoms: _316  and  _317
REMARK  124  A    between atoms: _320  and  _322
REMARK  125  A    between atoms: _322  and  _323
REMARK  126  A    between atoms: _322  and  _325
REMARK  127  A    between atoms: _328  and  _330
REMARK  128  A    between atoms: _330  and  _331
REMARK  129  A    between atoms: _330  and  _333
REMARK  130  A    between atoms: _333  and  _334
REMARK  131  A    between atoms: _337  and  _339
REMARK  132  A    between atoms: _339  and  _340
REMARK  133  A    between atoms: _339  and  _342
REMARK  134  A    between atoms: _342  and  _343
REMARK  135  A    between atoms: _343  and  _344
REMARK  136  A    between atoms: _347  and  _349
REMARK  137  A    between atoms: _349  and  _350
REMARK  138  A    between atoms: _353  and  _355
REMARK  139  A    between atoms: _355  and  _356
REMARK  140  A    between atoms: _355  and  _358
REMARK  141  A    between atoms: _358  and  _359
REMARK  142  A    between atoms: _362  and  _364
REMARK  143  A    between atoms: _364  and  _365
REMARK  144  A    between atoms: _364  and  _367
REMARK  145  A    between atoms: _367  and  _368
REMARK  146  A    between atoms: _368  and  _369
REMARK  147  A    between atoms: _372  and  _374
REMARK  148  A    between atoms: _374  and  _375
REMARK  149  A    between atoms: _374  and  _377
REMARK  150  A    between atoms: _377  and  _378
REMARK  151  A    between atoms: _378  and  _379
REMARK  152  A    between atoms: _379  and  _380
REMARK  153  A    between atoms: _389  and  _391
REMARK  154  A    between atoms: _391  and  _392
REMARK  155  A    between atoms: _391  and  _394
REMARK  156  A    between atoms: _394  and  _395
REMARK  157  A    between atoms: _405  and  _407
REMARK  158  A    between atoms: _407  and  _408
REMARK  159  A    between atoms: _407  and  _410
REMARK  160  A    between atoms: _410  and  _411
REMARK  161  A    between atoms: _416  and  _418
REMARK  162  A    between atoms: _418  and  _419
REMARK  163  A    between atoms: _421  and  _423
REMARK  164  A    between atoms: _423  and  _424
REMARK  165  A    between atoms: _423  and  _426
REMARK  166  A    between atoms: _429  and  _431
REMARK  167  A    between atoms: _431  and  _432
REMARK  168  A    between atoms: _435  and  _437
REMARK  169  A    between atoms: _437  and  _438
REMARK  170  A    between atoms: _437  and  _440
REMARK  171  A    between atoms: _440  and  _441
REMARK  172  A    between atoms: _446  and  _448
REMARK  173  A    between atoms: _448  and  _449
REMARK  174  A    between atoms: _448  and  _451
REMARK  175  A    between atoms: _451  and  _452
REMARK  176  A    between atoms: _452  and  _453
REMARK  177  A    between atoms: _453  and  _454
REMARK  178  A    between atoms: _454  and  _455
REMARK  179  A    between atoms: _459  and  _461
REMARK  180  A    between atoms: _461  and  _462
REMARK  181  A    between atoms: _461  and  _464
REMARK  182  A    between atoms: _464  and  _465
REMARK  183  A    between atoms: _470  and  _472
REMARK  184  A    between atoms: _472  and  _473
REMARK  185  A    between atoms: _475  and  _477
REMARK  186  A    between atoms: _477  and  _478
REMARK  187  A    between atoms: _477  and  _480
REMARK  188  A    between atoms: _480  and  _481
REMARK  189  A    between atoms: _481  and  _482
REMARK  190  A    between atoms: _482  and  _483
REMARK  191  A    between atoms: _483  and  _484
REMARK  192  A    between atoms: _488  and  _490
REMARK  193  A    between atoms: _490  and  _491
REMARK  194  A    between atoms: _490  and  _493
REMARK  195  A    between atoms: _493  and  _494
REMARK  196  A    between atoms: _494  and  _495
REMARK  197  A    between atoms: _495  and  _496
REMARK  198  A    between atoms: _505  and  _507
REMARK  199  A    between atoms: _507  and  _508
REMARK  200  A    between atoms: _507  and  _510
REMARK  201  A    between atoms: _510  and  _511
REMARK  202  A    between atoms: _516  and  _517
REMARK  203  A    between atoms: _519  and  _521
REMARK  204  A    between atoms: _521  and  _522
REMARK  205  A    between atoms: _521  and  _524
REMARK  206  A    between atoms: _524  and  _525
REMARK  207  A    between atoms: _525  and  _526
REMARK  208  A    between atoms: _526  and  _527
REMARK  209  A    between atoms: _527  and  _528
REMARK  210  A    between atoms: _532  and  _534
REMARK  211  A    between atoms: _534  and  _535
REMARK  212  A    between atoms: _534  and  _537
REMARK  213  A    between atoms: _537  and  _538
REMARK  214  A    between atoms: _540  and  _542
REMARK  215  A    between atoms: _542  and  _543
REMARK  216  A    between atoms: _542  and  _545
REMARK  217  A    between atoms: _545  and  _546
REMARK  218  A    between atoms: _549  and  _551
REMARK  219  A    between atoms: _551  and  _552
REMARK  220  A    between atoms: _551  and  _554
REMARK  221  A    between atoms: _554  and  _555
REMARK  222  A    between atoms: _555  and  _556
REMARK  223  A    between atoms: _559  and  _561
REMARK  224  A    between atoms: _561  and  _562
REMARK  225  A    between atoms: _565  and  _567
REMARK  226  A    between atoms: _567  and  _568
REMARK  227  A    between atoms: _567  and  _570
REMARK  228  A    between atoms: _570  and  _571
REMARK  229  A    between atoms: _573  and  _575
REMARK  230  A    between atoms: _575  and  _576
REMARK  231  A    between atoms: _578  and  _580
REMARK  232  A    between atoms: _580  and  _581
REMARK  233  A    between atoms: _580  and  _583
REMARK  234  A    between atoms: _583  and  _584
REMARK  235  A    between atoms: _587  and  _589
REMARK  236  A    between atoms: _589  and  _590
REMARK  237  A    between atoms: _592  and  _594
REMARK  238  A    between atoms: _594  and  _595
REMARK  239  A    between atoms: _594  and  _597
REMARK  240  A    between atoms: _597  and  _598
REMARK  241  A    between atoms: _603  and  _605
REMARK  242  A    between atoms: _605  and  _606
REMARK  243  A    between atoms: _605  and  _608
REMARK  244  A    between atoms: _608  and  _609
REMARK  245  A    between atoms: _609  and  _610
REMARK  246  A    between atoms: _617  and  _618
REMARK  247  A    between atoms: _618  and  _634
REMARK  248  A    between atoms: _619  and  _621
REMARK  249  A    between atoms: _621  and  _622
REMARK  250  A    between atoms: _622  and  _623
REMARK  251  A    between atoms: _627  and  _629
REMARK  252  A    between atoms: _629  and  _630
REMARK  253  A    between atoms: _629  and  _637
REMARK  254  A    between atoms: _630  and  _631
REMARK  255  A    between atoms: _631  and  _632
REMARK  256  A    between atoms: _632  and  _633
REMARK  257  A    between atoms: _633  and  _634
REMARK  258  A    between atoms: _639  and  _641
REMARK  259  A    between atoms: _641  and  _642
REMARK  260  A    between atoms: _641  and  _644
REMARK  261  A    between atoms: _644  and  _645
REMARK  262  A    between atoms: _648  and  _650
REMARK  263  A    between atoms: _650  and  _651
REMARK  264  A    between atoms: _653  and  _655
REMARK  265  A    between atoms: _655  and  _656
REMARK  266  A    between atoms: _659  and  _661
REMARK  267  A    between atoms: _661  and  _662
REMARK  268  A    between atoms: _661  and  _664
REMARK  269  A    between atoms: _664  and  _665
REMARK  270  A    between atoms: _670  and  _671
REMARK                            x       y       z     vdW  Elec       q    Type
REMARK                         _______ _______ _______ _____ _____    ______ ____
ROOT
ATOM      1  O   HOH     1      38.475  29.925  37.191  0.00  0.00    +0.000 OA
ENDROOT
TORSDOF 0
REMARK  Name = ../refined-set-2016/3g2k/3g2k_pocket.pdb
REMARK  270 active torsions:
REMARK  status: ('A' for Active; 'I' for Inactive)
REMARK    1  A    between atoms: _1  and  _3
REMARK    2  A    between atoms: _3  and  _4
REMARK    3  A    between atoms: _3  and  _6
REMARK    4  A    between atoms: _6  and  _7
REMARK    5  A    between atoms: _12  and  _13
REMARK    6  A    between atoms: _15  and  _17
REMARK    7  A    between atoms: _17  and  _18
REMARK    8  A    between atoms: _17  and  _20
REMARK    9  A    between atoms: _20  and  _21
REMARK   10  A    between atoms: _24  and  _26
REMARK   11  A    between atoms: _26  and  _27
REMARK   12  A    between atoms: _26  and  _29
REMARK   13  A    between atoms: _29  and  _30
REMARK   14  A    between atoms: _30  and  _31
REMARK   15  A    between atoms: _34  and  _36
REMARK   16  A    between atoms: _36  and  _37
REMARK   17  A    between atoms: _36  and  _39
REMARK   18  A    between atoms: _39  and  _40
REMARK   19  A    between atoms: _45  and  _47
REMARK   20  A    between atoms: _47  and  _48
REMARK   21  A    between atoms: _50  and  _52
REMARK   22  A    between atoms: _52  and  _53
REMARK   23  A    between atoms: _55  and  _57
REMARK   24  A    between atoms: _57  and  _58
REMARK   25  A    between atoms: _57  and  _60
REMARK   26  A    between atoms: _60  and  _61
REMARK   27  A    between atoms: _64  and  _66
REMARK   28  A    between atoms: _66  and  _67
REMARK   29  A    between atoms: _69  and  _71
REMARK   30  A    between atoms: _71  and  _72
REMARK   31  A    between atoms: _71  and  _74
REMARK   32  A    between atoms: _74  and  _75
REMARK   33  A    between atoms: _75  and  _76
REMARK   34  A    between atoms: _76  and  _77
REMARK   35  A    between atoms: _86  and  _88
REMARK   36  A    between atoms: _88  and  _89
REMARK   37  A    between atoms: _88  and  _91
REMARK   38  A    between atoms: _91  and  _92
REMARK   39  A    between atoms: _95  and  _97
REMARK   40  A    between atoms: _97  and  _98
REMARK   41  A    between atoms: _101  and  _103
REMARK   42  A    between atoms: _103  and  _104
REMARK   43  A    between atoms: _103  and  _106
REMARK   44  A    between atoms: _106  and  _107
REMARK   45  A    between atoms: _113  and  _115
REMARK   46  A    between atoms: _115  and  _116
REMARK   47  A    between atoms: _115  and  _118
REMARK   48  A    between atoms: _118  and  _119
REMARK   49  A    between atoms: _124  and  _125
REMARK   50  A    between atoms: _128  and  _129
REMARK   51  A    between atoms: _134  and  _136
REMARK   52  A    between atoms: _136  and  _137
REMARK   53  A    between atoms: _136  and  _139
REMARK   54  A    between atoms: _139  and  _140
REMARK   55  A    between atoms: _145  and  _147
REMARK   56  A    between atoms: _147  and  _148
REMARK   57  A    between atoms: _147  and  _150
REMARK   58  A    between atoms: _150  and  _151
REMARK   59  A    between atoms: _154  and  _156
REMARK   60  A    between atoms: _156  and  _157
REMARK   61  A    between atoms: _156  and  _159
REMARK   62  A    between atoms: _159  and  _160
REMARK   63  A    between atoms: _165  and  _167
REMARK   64  A    between atoms: _167  and  _168
REMARK   65  A    between atoms: _167  and  _170
REMARK   66  A    between atoms: _170  and  _171
REMARK   67  A    between atoms: _177  and  _179
REMARK   68  A    between atoms: _179  and  _180
REMARK   69  A    between atoms: _179  and  _182
REMARK   70  A    between atoms: _182  and  _183
REMARK   71  A    between atoms: _189  and  _191
REMARK   72  A    between atoms: _191  and  _192
REMARK   73  A    between atoms: _191  and  _194
REMARK   74  A    between atoms: _194  and  _195
REMARK   75  A    between atoms: _195  and  _196
REMARK   76  A    between atoms: _199  and  _201
REMARK   77  A    between atoms: _201  and  _202
REMARK   78  A    between atoms: _201  and  _204
REMARK   79  A    between atoms: _204  and  _205
REMARK   80  A    between atoms: _205  and  _206
REMARK   81  A    between atoms: _206  and  _207
REMARK   82  A    between atoms: _216  and  _218
REMARK   83  A    between atoms: _218  and  _219
REMARK   84  A    between atoms: _218  and  _221
REMARK   85  A    between atoms: _221  and  _222
REMARK   86  A    between atoms: _222  and  _223
REMARK   87  A    between atoms: _226  and  _228
REMARK   88  A    between atoms: _228  and  _229
REMARK   89  A    between atoms: _228  and  _231
REMARK   90  A    between atoms: _231  and  _232
REMARK   91  A    between atoms: _237  and  _239
REMARK   92  A    between atoms: _239  and  _240
REMARK   93  A    between atoms: _239  and  _242
REMARK   94  A    between atoms: _242  and  _243
REMARK   95  A    between atoms: _246  and  _248
REMARK   96  A    between atoms: _248  and  _249
REMARK   97  A    between atoms: _248  and  _251
REMARK   98  A    between atoms: _251  and  _252
REMARK   99  A    between atoms: _255  and  _257
REMARK  100  A    between atoms: _257  and  _258
REMARK  101  A    between atoms: _257  and  _260
REMARK  102  A    between atoms: _260  and  _261
REMARK  103  A    between atoms: _266  and  _268
REMARK  104  A    between atoms: _268  and  _269
REMARK  105  A    between atoms: _268  and  _271
REMARK  106  A    between atoms: _271  and  _272
REMARK  107  A    between atoms: _277  and  _278
REMARK  108  A    between atoms: _280  and  _282
REMARK  109  A    between atoms: _282  and  _283
REMARK  110  A    between atoms: _282  and  _285
REMARK  111  A    between atoms: _285  and  _286
REMARK  112  A    between atoms: _289  and  _291
REMARK  113  A    between atoms: _291  and  _292
REMARK  114  A    between atoms: _291  and  _294
REMARK  115  A    between atoms: _294  and  _295
REMARK  116  A    between atoms: _300  and  _302
REMARK  117  A    between atoms: _302  and  _303
REMARK  118  A    between atoms: _302  and  _305
REMARK  119  A    between atoms: _305  and  _306
REMARK  120  A    between atoms: _311  and  _313
REMARK  121  A    between atoms: _313  and  _314
REMARK  122  A    between atoms: _313  and  _316
REMARK  123  A    between atoms: _316  and  _317
REMARK  124  A    between atoms: _320  and  _322
REMARK  125  A    between atoms: _322  and  _323
REMARK  126  A    between atoms: _322  and  _325
REMARK  127  A    between atoms: _328  and  _330
REMARK  128  A    between atoms: _330  and  _331
REMARK  129  A    between atoms: _330  and  _333
REMARK  130  A    between atoms: _333  and  _334
REMARK  131  A    between atoms: _337  and  _339
REMARK  132  A    between atoms: _339  and  _340
REMARK  133  A    between atoms: _339  and  _342
REMARK  134  A    between atoms: _342  and  _343
REMARK  135  A    between atoms: _343  and  _344
REMARK  136  A    between atoms: _347  and  _349
REMARK  137  A    between atoms: _349  and  _350
REMARK  138  A    between atoms: _353  and  _355
REMARK  139  A    between atoms: _355  and  _356
REMARK  140  A    between atoms: _355  and  _358
REMARK  141  A    between atoms: _358  and  _359
REMARK  142  A    between atoms: _362  and  _364
REMARK  143  A    between atoms: _364  and  _365
REMARK  144  A    between atoms: _364  and  _367
REMARK  145  A    between atoms: _367  and  _368
REMARK  146  A    between atoms: _368  and  _369
REMARK  147  A    between atoms: _372  and  _374
REMARK  148  A    between atoms: _374  and  _375
REMARK  149  A    between atoms: _374  and  _377
REMARK  150  A    between atoms: _377  and  _378
REMARK  151  A    between atoms: _378  and  _379
REMARK  152  A    between atoms: _379  and  _380
REMARK  153  A    between atoms: _389  and  _391
REMARK  154  A    between atoms: _391  and  _392
REMARK  155  A    between atoms: _391  and  _394
REMARK  156  A    between atoms: _394  and  _395
REMARK  157  A    between atoms: _405  and  _407
REMARK  158  A    between atoms: _407  and  _408
REMARK  159  A    between atoms: _407  and  _410
REMARK  160  A    between atoms: _410  and  _411
REMARK  161  A    between atoms: _416  and  _418
REMARK  162  A    between atoms: _418  and  _419
REMARK  163  A    between atoms: _421  and  _423
REMARK  164  A    between atoms: _423  and  _424
REMARK  165  A    between atoms: _423  and  _426
REMARK  166  A    between atoms: _429  and  _431
REMARK  167  A    between atoms: _431  and  _432
REMARK  168  A    between atoms: _435  and  _437
REMARK  169  A    between atoms: _437  and  _438
REMARK  170  A    between atoms: _437  and  _440
REMARK  171  A    between atoms: _440  and  _441
REMARK  172  A    between atoms: _446  and  _448
REMARK  173  A    between atoms: _448  and  _449
REMARK  174  A    between atoms: _448  and  _451
REMARK  175  A    between atoms: _451  and  _452
REMARK  176  A    between atoms: _452  and  _453
REMARK  177  A    between atoms: _453  and  _454
REMARK  178  A    between atoms: _454  and  _455
REMARK  179  A    between atoms: _459  and  _461
REMARK  180  A    between atoms: _461  and  _462
REMARK  181  A    between atoms: _461  and  _464
REMARK  182  A    between atoms: _464  and  _465
REMARK  183  A    between atoms: _470  and  _472
REMARK  184  A    between atoms: _472  and  _473
REMARK  185  A    between atoms: _475  and  _477
REMARK  186  A    between atoms: _477  and  _478
REMARK  187  A    between atoms: _477  and  _480
REMARK  188  A    between atoms: _480  and  _481
REMARK  189  A    between atoms: _481  and  _482
REMARK  190  A    between atoms: _482  and  _483
REMARK  191  A    between atoms: _483  and  _484
REMARK  192  A    between atoms: _488  and  _490
REMARK  193  A    between atoms: _490  and  _491
REMARK  194  A    between atoms: _490  and  _493
REMARK  195  A    between atoms: _493  and  _494
REMARK  196  A    between atoms: _494  and  _495
REMARK  197  A    between atoms: _495  and  _496
REMARK  198  A    between atoms: _505  and  _507
REMARK  199  A    between atoms: _507  and  _508
REMARK  200  A    between atoms: _507  and  _510
REMARK  201  A    between atoms: _510  and  _511
REMARK  202  A    between atoms: _516  and  _517
REMARK  203  A    between atoms: _519  and  _521
REMARK  204  A    between atoms: _521  and  _522
REMARK  205  A    between atoms: _521  and  _524
REMARK  206  A    between atoms: _524  and  _525
REMARK  207  A    between atoms: _525  and  _526
REMARK  208  A    between atoms: _526  and  _527
REMARK  209  A    between atoms: _527  and  _528
REMARK  210  A    between atoms: _532  and  _534
REMARK  211  A    between atoms: _534  and  _535
REMARK  212  A    between atoms: _534  and  _537
REMARK  213  A    between atoms: _537  and  _538
REMARK  214  A    between atoms: _540  and  _542
REMARK  215  A    between atoms: _542  and  _543
REMARK  216  A    between atoms: _542  and  _545
REMARK  217  A    between atoms: _545  and  _546
REMARK  218  A    between atoms: _549  and  _551
REMARK  219  A    between atoms: _551  and  _552
REMARK  220  A    between atoms: _551  and  _554
REMARK  221  A    between atoms: _554  and  _555
REMARK  222  A    between atoms: _555  and  _556
REMARK  223  A    between atoms: _559  and  _561
REMARK  224  A    between atoms: _561  and  _562
REMARK  225  A    between atoms: _565  and  _567
REMARK  226  A    between atoms: _567  and  _568
REMARK  227  A    between atoms: _567  and  _570
REMARK  228  A    between atoms: _570  and  _571
REMARK  229  A    between atoms: _573  and  _575
REMARK  230  A    between atoms: _575  and  _576
REMARK  231  A    between atoms: _578  and  _580
REMARK  232  A    between atoms: _580  and  _581
REMARK  233  A    between atoms: _580  and  _583
REMARK  234  A    between atoms: _583  and  _584
REMARK  235  A    between atoms: _587  and  _589
REMARK  236  A    between atoms: _589  and  _590
REMARK  237  A    between atoms: _592  and  _594
REMARK  238  A    between atoms: _594  and  _595
REMARK  239  A    between atoms: _594  and  _597
REMARK  240  A    between atoms: _597  and  _598
REMARK  241  A    between atoms: _603  and  _605
REMARK  242  A    between atoms: _605  and  _606
REMARK  243  A    between atoms: _605  and  _608
REMARK  244  A    between atoms: _608  and  _609
REMARK  245  A    between atoms: _609  and  _610
REMARK  246  A    between atoms: _617  and  _618
REMARK  247  A    between atoms: _618  and  _634
REMARK  248  A    between atoms: _619  and  _621
REMARK  249  A    between atoms: _621  and  _622
REMARK  250  A    between atoms: _622  and  _623
REMARK  251  A    between atoms: _627  and  _629
REMARK  252  A    between atoms: _629  and  _630
REMARK  253  A    between atoms: _629  and  _637
REMARK  254  A    between atoms: _630  and  _631
REMARK  255  A    between atoms: _631  and  _632
REMARK  256  A    between atoms: _632  and  _633
REMARK  257  A    between atoms: _633  and  _634
REMARK  258  A    between atoms: _639  and  _641
REMARK  259  A    between atoms: _641  and  _642
REMARK  260  A    between atoms: _641  and  _644
REMARK  261  A    between atoms: _644  and  _645
REMARK  262  A    between atoms: _648  and  _650
REMARK  263  A    between atoms: _650  and  _651
REMARK  264  A    between atoms: _653  and  _655
REMARK  265  A    between atoms: _655  and  _656
REMARK  266  A    between atoms: _659  and  _661
REMARK  267  A    between atoms: _661  and  _662
REMARK  268  A    between atoms: _661  and  _664
REMARK  269  A    between atoms: _664  and  _665
REMARK  270  A    between atoms: _670  and  _671
REMARK                            x       y       z     vdW  Elec       q    Type
REMARK                         _______ _______ _______ _____ _____    ______ ____
ROOT
ATOM      1  O   HOH     1      35.983  28.469  37.223  0.00  0.00    +0.000 OA
ENDROOT
TORSDOF 0
