REMARK  Name = ../refined-set-2016/4pg9/4pg9_pocket.pdb
REMARK  337 active torsions:
REMARK  status: ('A' for Active; 'I' for Inactive)
REMARK    1  A    between atoms: _1  and  _3
REMARK    2  A    between atoms: _3  and  _4
REMARK    3  A    between atoms: _3  and  _6
REMARK    4  A    between atoms: _6  and  _7
REMARK    5  A    between atoms: _10  and  _12
REMARK    6  A    between atoms: _12  and  _13
REMARK    7  A    between atoms: _12  and  _15
REMARK    8  A    between atoms: _15  and  _16
REMARK    9  A    between atoms: _16  and  _17
REMARK   10  A    between atoms: _17  and  _18
REMARK   11  A    between atoms: _27  and  _29
REMARK   12  A    between atoms: _29  and  _30
REMARK   13  A    between atoms: _29  and  _32
REMARK   14  A    between atoms: _32  and  _33
REMARK   15  A    between atoms: _38  and  _39
REMARK   16  A    between atoms: _41  and  _43
REMARK   17  A    between atoms: _43  and  _44
REMARK   18  A    between atoms: _43  and  _46
REMARK   19  A    between atoms: _46  and  _47
REMARK   20  A    between atoms: _53  and  _55
REMARK   21  A    between atoms: _55  and  _56
REMARK   22  A    between atoms: _55  and  _58
REMARK   23  A    between atoms: _61  and  _63
REMARK   24  A    between atoms: _63  and  _64
REMARK   25  A    between atoms: _63  and  _66
REMARK   26  A    between atoms: _66  and  _67
REMARK   27  A    between atoms: _70  and  _72
REMARK   28  A    between atoms: _72  and  _73
REMARK   29  A    between atoms: _72  and  _75
REMARK   30  A    between atoms: _75  and  _76
REMARK   31  A    between atoms: _81  and  _82
REMARK   32  A    between atoms: _84  and  _86
REMARK   33  A    between atoms: _86  and  _87
REMARK   34  A    between atoms: _86  and  _89
REMARK   35  A    between atoms: _89  and  _90
REMARK   36  A    between atoms: _90  and  _91
REMARK   37  A    between atoms: _93  and  _95
REMARK   38  A    between atoms: _95  and  _96
REMARK   39  A    between atoms: _95  and  _98
REMARK   40  A    between atoms: _98  and  _99
REMARK   41  A    between atoms: _99  and  _100
REMARK   42  A    between atoms: _103  and  _105
REMARK   43  A    between atoms: _105  and  _106
REMARK   44  A    between atoms: _105  and  _108
REMARK   45  A    between atoms: _111  and  _113
REMARK   46  A    between atoms: _113  and  _114
REMARK   47  A    between atoms: _116  and  _118
REMARK   48  A    between atoms: _118  and  _119
REMARK   49  A    between atoms: _118  and  _121
REMARK   50  A    between atoms: _124  and  _126
REMARK   51  A    between atoms: _126  and  _127
REMARK   52  A    between atoms: _126  and  _129
REMARK   53  A    between atoms: _129  and  _130
REMARK   54  A    between atoms: _136  and  _138
REMARK   55  A    between atoms: _138  and  _139
REMARK   56  A    between atoms: _138  and  _141
REMARK   57  A    between atoms: _144  and  _146
REMARK   58  A    between atoms: _146  and  _147
REMARK   59  A    between atoms: _146  and  _149
REMARK   60  A    between atoms: _149  and  _150
REMARK   61  A    between atoms: _155  and  _156
REMARK   62  A    between atoms: _158  and  _160
REMARK   63  A    between atoms: _160  and  _161
REMARK   64  A    between atoms: _160  and  _163
REMARK   65  A    between atoms: _163  and  _164
REMARK   66  A    between atoms: _164  and  _165
REMARK   67  A    between atoms: _167  and  _169
REMARK   68  A    between atoms: _169  and  _170
REMARK   69  A    between atoms: _169  and  _172
REMARK   70  A    between atoms: _172  and  _173
REMARK   71  A    between atoms: _173  and  _174
REMARK   72  A    between atoms: _177  and  _179
REMARK   73  A    between atoms: _179  and  _180
REMARK   74  A    between atoms: _179  and  _182
REMARK   75  A    between atoms: _182  and  _183
REMARK   76  A    between atoms: _183  and  _184
REMARK   77  A    between atoms: _187  and  _189
REMARK   78  A    between atoms: _189  and  _190
REMARK   79  A    between atoms: _189  and  _192
REMARK   80  A    between atoms: _192  and  _193
REMARK   81  A    between atoms: _198  and  _199
REMARK   82  A    between atoms: _201  and  _203
REMARK   83  A    between atoms: _203  and  _204
REMARK   84  A    between atoms: _203  and  _206
REMARK   85  A    between atoms: _206  and  _207
REMARK   86  A    between atoms: _207  and  _208
REMARK   87  A    between atoms: _208  and  _209
REMARK   88  A    between atoms: _218  and  _220
REMARK   89  A    between atoms: _220  and  _221
REMARK   90  A    between atoms: _220  and  _223
REMARK   91  A    between atoms: _223  and  _224
REMARK   92  A    between atoms: _224  and  _225
REMARK   93  A    between atoms: _228  and  _230
REMARK   94  A    between atoms: _230  and  _231
REMARK   95  A    between atoms: _230  and  _233
REMARK   96  A    between atoms: _233  and  _234
REMARK   97  A    between atoms: _237  and  _239
REMARK   98  A    between atoms: _239  and  _240
REMARK   99  A    between atoms: _239  and  _242
REMARK  100  A    between atoms: _242  and  _243
REMARK  101  A    between atoms: _243  and  _244
REMARK  102  A    between atoms: _249  and  _251
REMARK  103  A    between atoms: _251  and  _252
REMARK  104  A    between atoms: _251  and  _254
REMARK  105  A    between atoms: _254  and  _255
REMARK  106  A    between atoms: _255  and  _256
REMARK  107  A    between atoms: _256  and  _257
REMARK  108  A    between atoms: _257  and  _258
REMARK  109  A    between atoms: _262  and  _264
REMARK  110  A    between atoms: _264  and  _265
REMARK  111  A    between atoms: _268  and  _270
REMARK  112  A    between atoms: _270  and  _271
REMARK  113  A    between atoms: _273  and  _275
REMARK  114  A    between atoms: _275  and  _276
REMARK  115  A    between atoms: _275  and  _278
REMARK  116  A    between atoms: _278  and  _279
REMARK  117  A    between atoms: _284  and  _286
REMARK  118  A    between atoms: _286  and  _287
REMARK  119  A    between atoms: _286  and  _289
REMARK  120  A    between atoms: _289  and  _290
REMARK  121  A    between atoms: _290  and  _291
REMARK  122  A    between atoms: _294  and  _296
REMARK  123  A    between atoms: _296  and  _297
REMARK  124  A    between atoms: _296  and  _299
REMARK  125  A    between atoms: _299  and  _300
REMARK  126  A    between atoms: _300  and  _301
REMARK  127  A    between atoms: _306  and  _308
REMARK  128  A    between atoms: _308  and  _309
REMARK  129  A    between atoms: _308  and  _311
REMARK  130  A    between atoms: _311  and  _312
REMARK  131  A    between atoms: _314  and  _316
REMARK  132  A    between atoms: _316  and  _317
REMARK  133  A    between atoms: _316  and  _319
REMARK  134  A    between atoms: _319  and  _320
REMARK  135  A    between atoms: _326  and  _328
REMARK  136  A    between atoms: _328  and  _329
REMARK  137  A    between atoms: _328  and  _331
REMARK  138  A    between atoms: _334  and  _336
REMARK  139  A    between atoms: _336  and  _337
REMARK  140  A    between atoms: _336  and  _339
REMARK  141  A    between atoms: _339  and  _340
REMARK  142  A    between atoms: _343  and  _345
REMARK  143  A    between atoms: _345  and  _346
REMARK  144  A    between atoms: _345  and  _348
REMARK  145  A    between atoms: _348  and  _349
REMARK  146  A    between atoms: _352  and  _354
REMARK  147  A    between atoms: _354  and  _355
REMARK  148  A    between atoms: _354  and  _357
REMARK  149  A    between atoms: _357  and  _358
REMARK  150  A    between atoms: _361  and  _363
REMARK  151  A    between atoms: _363  and  _364
REMARK  152  A    between atoms: _363  and  _366
REMARK  153  A    between atoms: _366  and  _367
REMARK  154  A    between atoms: _370  and  _372
REMARK  155  A    between atoms: _372  and  _373
REMARK  156  A    between atoms: _372  and  _375
REMARK  157  A    between atoms: _375  and  _376
REMARK  158  A    between atoms: _381  and  _382
REMARK  159  A    between atoms: _384  and  _386
REMARK  160  A    between atoms: _386  and  _387
REMARK  161  A    between atoms: _386  and  _389
REMARK  162  A    between atoms: _389  and  _390
REMARK  163  A    between atoms: _395  and  _396
REMARK  164  A    between atoms: _398  and  _400
REMARK  165  A    between atoms: _400  and  _401
REMARK  166  A    between atoms: _400  and  _403
REMARK  167  A    between atoms: _403  and  _404
REMARK  168  A    between atoms: _407  and  _409
REMARK  169  A    between atoms: _409  and  _410
REMARK  170  A    between atoms: _409  and  _412
REMARK  171  A    between atoms: _412  and  _413
REMARK  172  A    between atoms: _416  and  _418
REMARK  173  A    between atoms: _418  and  _419
REMARK  174  A    between atoms: _418  and  _421
REMARK  175  A    between atoms: _421  and  _422
REMARK  176  A    between atoms: _422  and  _423
REMARK  177  A    between atoms: _428  and  _430
REMARK  178  A    between atoms: _430  and  _431
REMARK  179  A    between atoms: _430  and  _433
REMARK  180  A    between atoms: _436  and  _438
REMARK  181  A    between atoms: _438  and  _439
REMARK  182  A    between atoms: _438  and  _441
REMARK  183  A    between atoms: _441  and  _442
REMARK  184  A    between atoms: _445  and  _447
REMARK  185  A    between atoms: _447  and  _448
REMARK  186  A    between atoms: _447  and  _450
REMARK  187  A    between atoms: _450  and  _451
REMARK  188  A    between atoms: _453  and  _455
REMARK  189  A    between atoms: _455  and  _456
REMARK  190  A    between atoms: _458  and  _460
REMARK  191  A    between atoms: _460  and  _461
REMARK  192  A    between atoms: _460  and  _463
REMARK  193  A    between atoms: _463  and  _464
REMARK  194  A    between atoms: _464  and  _759
REMARK  195  A    between atoms: _465  and  _467
REMARK  196  A    between atoms: _467  and  _468
REMARK  197  A    between atoms: _467  and  _470
REMARK  198  A    between atoms: _470  and  _471
REMARK  199  A    between atoms: _476  and  _477
REMARK  200  A    between atoms: _479  and  _481
REMARK  201  A    between atoms: _481  and  _482
REMARK  202  A    between atoms: _481  and  _484
REMARK  203  A    between atoms: _484  and  _485
REMARK  204  A    between atoms: _485  and  _486
REMARK  205  A    between atoms: _491  and  _493
REMARK  206  A    between atoms: _493  and  _494
REMARK  207  A    between atoms: _493  and  _496
REMARK  208  A    between atoms: _496  and  _497
REMARK  209  A    between atoms: _497  and  _498
REMARK  210  A    between atoms: _503  and  _505
REMARK  211  A    between atoms: _505  and  _506
REMARK  212  A    between atoms: _505  and  _508
REMARK  213  A    between atoms: _508  and  _509
REMARK  214  A    between atoms: _514  and  _515
REMARK  215  A    between atoms: _517  and  _519
REMARK  216  A    between atoms: _519  and  _520
REMARK  217  A    between atoms: _523  and  _525
REMARK  218  A    between atoms: _525  and  _526
REMARK  219  A    between atoms: _525  and  _528
REMARK  220  A    between atoms: _528  and  _529
REMARK  221  A    between atoms: _534  and  _535
REMARK  222  A    between atoms: _537  and  _539
REMARK  223  A    between atoms: _539  and  _540
REMARK  224  A    between atoms: _539  and  _542
REMARK  225  A    between atoms: _542  and  _543
REMARK  226  A    between atoms: _548  and  _549
REMARK  227  A    between atoms: _551  and  _553
REMARK  228  A    between atoms: _553  and  _554
REMARK  229  A    between atoms: _553  and  _556
REMARK  230  A    between atoms: _556  and  _557
REMARK  231  A    between atoms: _560  and  _562
REMARK  232  A    between atoms: _562  and  _563
REMARK  233  A    between atoms: _562  and  _565
REMARK  234  A    between atoms: _565  and  _566
REMARK  235  A    between atoms: _576  and  _578
REMARK  236  A    between atoms: _578  and  _579
REMARK  237  A    between atoms: _582  and  _584
REMARK  238  A    between atoms: _584  and  _585
REMARK  239  A    between atoms: _588  and  _590
REMARK  240  A    between atoms: _590  and  _591
REMARK  241  A    between atoms: _590  and  _593
REMARK  242  A    between atoms: _593  and  _594
REMARK  243  A    between atoms: _597  and  _599
REMARK  244  A    between atoms: _599  and  _600
REMARK  245  A    between atoms: _599  and  _602
REMARK  246  A    between atoms: _602  and  _603
REMARK  247  A    between atoms: _606  and  _608
REMARK  248  A    between atoms: _608  and  _609
REMARK  249  A    between atoms: _608  and  _611
REMARK  250  A    between atoms: _611  and  _612
REMARK  251  A    between atoms: _615  and  _617
REMARK  252  A    between atoms: _617  and  _618
REMARK  253  A    between atoms: _617  and  _620
REMARK  254  A    between atoms: _620  and  _621
REMARK  255  A    between atoms: _621  and  _622
REMARK  256  A    between atoms: _622  and  _623
REMARK  257  A    between atoms: _623  and  _624
REMARK  258  A    between atoms: _628  and  _630
REMARK  259  A    between atoms: _630  and  _631
REMARK  260  A    between atoms: _630  and  _633
REMARK  261  A    between atoms: _633  and  _634
REMARK  262  A    between atoms: _639  and  _641
REMARK  263  A    between atoms: _641  and  _642
REMARK  264  A    between atoms: _641  and  _644
REMARK  265  A    between atoms: _644  and  _645
REMARK  266  A    between atoms: _645  and  _646
REMARK  267  A    between atoms: _646  and  _647
REMARK  268  A    between atoms: _647  and  _648
REMARK  269  A    between atoms: _652  and  _654
REMARK  270  A    between atoms: _654  and  _655
REMARK  271  A    between atoms: _654  and  _657
REMARK  272  A    between atoms: _657  and  _658
REMARK  273  A    between atoms: _668  and  _670
REMARK  274  A    between atoms: _670  and  _671
REMARK  275  A    between atoms: _674  and  _676
REMARK  276  A    between atoms: _676  and  _677
REMARK  277  A    between atoms: _679  and  _681
REMARK  278  A    between atoms: _681  and  _682
REMARK  279  A    between atoms: _681  and  _684
REMARK  280  A    between atoms: _684  and  _685
REMARK  281  A    between atoms: _685  and  _686
REMARK  282  A    between atoms: _689  and  _691
REMARK  283  A    between atoms: _691  and  _692
REMARK  284  A    between atoms: _695  and  _697
REMARK  285  A    between atoms: _697  and  _698
REMARK  286  A    between atoms: _697  and  _700
REMARK  287  A    between atoms: _700  and  _701
REMARK  288  A    between atoms: _701  and  _702
REMARK  289  A    between atoms: _702  and  _703
REMARK  290  A    between atoms: _712  and  _714
REMARK  291  A    between atoms: _714  and  _715
REMARK  292  A    between atoms: _714  and  _717
REMARK  293  A    between atoms: _717  and  _718
REMARK  294  A    between atoms: _721  and  _723
REMARK  295  A    between atoms: _723  and  _724
REMARK  296  A    between atoms: _723  and  _726
REMARK  297  A    between atoms: _726  and  _727
REMARK  298  A    between atoms: _732  and  _733
REMARK  299  A    between atoms: _735  and  _737
REMARK  300  A    between atoms: _737  and  _738
REMARK  301  A    between atoms: _737  and  _740
REMARK  302  A    between atoms: _740  and  _741
REMARK  303  A    between atoms: _744  and  _746
REMARK  304  A    between atoms: _746  and  _747
REMARK  305  A    between atoms: _746  and  _749
REMARK  306  A    between atoms: _749  and  _750
REMARK  307  A    between atoms: _753  and  _755
REMARK  308  A    between atoms: _755  and  _756
REMARK  309  A    between atoms: _755  and  _758
REMARK  310  A    between atoms: _758  and  _759
REMARK  311  A    between atoms: _760  and  _762
REMARK  312  A    between atoms: _762  and  _763
REMARK  313  A    between atoms: _762  and  _765
REMARK  314  A    between atoms: _768  and  _770
REMARK  315  A    between atoms: _770  and  _771
REMARK  316  A    between atoms: _770  and  _773
REMARK  317  A    between atoms: _773  and  _774
REMARK  318  A    between atoms: _774  and  _775
REMARK  319  A    between atoms: _778  and  _780
REMARK  320  A    between atoms: _780  and  _781
REMARK  321  A    between atoms: _780  and  _783
REMARK  322  A    between atoms: _783  and  _784
REMARK  323  A    between atoms: _794  and  _796
REMARK  324  A    between atoms: _796  and  _797
REMARK  325  A    between atoms: _796  and  _799
REMARK  326  A    between atoms: _799  and  _800
REMARK  327  A    between atoms: _803  and  _805
REMARK  328  A    between atoms: _805  and  _806
REMARK  329  A    between atoms: _805  and  _808
REMARK  330  A    between atoms: _808  and  _809
REMARK  331  A    between atoms: _809  and  _810
REMARK  332  A    between atoms: _810  and  _811
REMARK  333  A    between atoms: _820  and  _822
REMARK  334  A    between atoms: _822  and  _823
REMARK  335  A    between atoms: _822  and  _825
REMARK  336  A    between atoms: _825  and  _826
REMARK  337  A    between atoms: _831  and  _832
REMARK                            x       y       z     vdW  Elec       q    Type
REMARK                         _______ _______ _______ _____ _____    ______ ____
ROOT
ATOM      1  CA  TYR A   3      50.330  21.360  -0.186  0.00  0.00    +0.153 C 
ENDROOT
BRANCH   1   4
ATOM      2  C   ARG A   2      49.747  19.062   0.455  0.00  0.00    +0.241 C 
ATOM      3  O   ARG A   2      49.463  19.377   1.608  0.00  0.00    -0.273 OA
ATOM      4  N   TYR A   3      50.209  19.925  -0.450  0.00  0.00    -0.297 N 
ATOM      5  H   TYR A   3      50.495  19.564  -1.382  0.00  0.00    +0.150 HD
BRANCH   2   6
ATOM      6  CA  ARG A   2      49.563  17.628  -0.018  0.00  0.00    +0.149 C 
BRANCH   6   8
ATOM      7  C   LEU A   1      50.580  15.565   0.795  0.00  0.00    +0.238 C 
ATOM      8  N   ARG A   2      49.864  16.661   1.039  0.00  0.00    -0.297 N 
ATOM      9  H   ARG A   2      49.511  16.834   2.002  0.00  0.00    +0.150 HD
ATOM     10  O   LEU A   1      51.077  15.317  -0.302  0.00  0.00    -0.274 OA
BRANCH   7  11
ATOM     11  CA  LEU A   1      50.749  14.584   1.932  0.00  0.00    +0.145 C 
BRANCH  11  12
ATOM     12  N   LEU A   1      50.239  13.308   1.445  0.00  0.00    -0.238 NA
ATOM     13  H   LEU A   1      50.664  12.906   0.585  0.00  0.00    +0.142 HD
ENDBRANCH  11  12
BRANCH  11  14
ATOM     14  CB  LEU A   1      52.230  14.474   2.303  0.00  0.00    +0.026 C 
BRANCH  14  15
ATOM     15  CG  LEU A   1      52.995  15.759   2.661  0.00  0.00    +0.002 C 
ATOM     16  CD2 LEU A   1      52.288  16.559   3.739  0.00  0.00    +0.000 C 
ATOM     17  CD1 LEU A   1      54.407  15.420   3.110  0.00  0.00    +0.000 C 
ENDBRANCH  14  15
ENDBRANCH  11  14
ENDBRANCH   7  11
ENDBRANCH   6   8
BRANCH   6  18
ATOM     18  CB  ARG A   2      48.127  17.446  -0.515  0.00  0.00    +0.033 C 
BRANCH  18  19
ATOM     19  CG  ARG A   2      47.819  16.057  -1.050  0.00  0.00    +0.045 C 
BRANCH  19  20
ATOM     20  CD  ARG A   2      46.366  15.877  -1.473  0.00  0.00    +0.174 C 
BRANCH  20  21
ATOM     21  NE  ARG A   2      45.415  16.397  -0.484  0.00  0.00    -0.265 N 
ATOM     22  HE  ARG A   2      45.692  17.251   0.041  0.00  0.00    +0.259 HD
ATOM     23  CZ  ARG A   2      44.223  15.864  -0.202  0.00  0.00    +0.342 C 
ATOM     24  NH2 ARG A   2      43.457  16.440   0.727  0.00  0.00    -0.292 N 
ATOM     25 HH21 ARG A   2      43.791  17.292   1.221  0.00  0.00    +0.255 HD
ATOM     26 HH22 ARG A   2      42.527  16.036   0.957  0.00  0.00    +0.255 HD
ATOM     27  NH1 ARG A   2      43.788  14.762  -0.823  0.00  0.00    -0.292 N 
ATOM     28 HH11 ARG A   2      42.856  14.365  -0.587  0.00  0.00    +0.255 HD
ATOM     29 HH12 ARG A   2      44.382  14.302  -1.542  0.00  0.00    +0.255 HD
ENDBRANCH  20  21
ENDBRANCH  19  20
ENDBRANCH  18  19
ENDBRANCH   6  18
ENDBRANCH   2   6
ENDBRANCH   1   4
BRANCH   1  30
ATOM     30  C   TYR A   3      49.547  22.155  -1.221  0.00  0.00    +0.241 C 
ATOM     31  N   PHE A   4      48.591  22.949  -0.741  0.00  0.00    -0.297 N 
ATOM     32  H   PHE A   4      48.403  22.936   0.282  0.00  0.00    +0.150 HD
ATOM     33  O   TYR A   3      49.795  22.032  -2.423  0.00  0.00    -0.273 OA
BRANCH  31  34
ATOM     34  CA  PHE A   4      47.792  23.840  -1.587  0.00  0.00    +0.153 C 
BRANCH  34  35
ATOM     35  C   PHE A   4      48.365  25.249  -1.485  0.00  0.00    +0.241 C 
ATOM     36  O   PHE A   4      48.459  25.807  -0.388  0.00  0.00    -0.273 OA
ATOM     37  N   VAL A   5      48.738  25.814  -2.631  0.00  0.00    -0.297 N 
ATOM     38  H   VAL A   5      48.581  25.295  -3.519  0.00  0.00    +0.150 HD
BRANCH  37  39
ATOM     39  CA  VAL A   5      49.360  27.135  -2.690  0.00  0.00    +0.149 C 
BRANCH  39  40
ATOM     40  C   VAL A   5      48.502  28.074  -3.535  0.00  0.00    +0.241 C 
ATOM     41  N   THR A   6      48.269  29.282  -3.027  0.00  0.00    -0.296 N 
ATOM     42  H   THR A   6      48.633  29.511  -2.080  0.00  0.00    +0.150 HD
ATOM     43  O   VAL A   5      48.051  27.701  -4.620  0.00  0.00    -0.273 OA
BRANCH  41  44
ATOM     44  CA  THR A   6      47.515  30.296  -3.763  0.00  0.00    +0.164 C 
BRANCH  44  45
ATOM     45  C   THR A   6      48.179  31.661  -3.683  0.00  0.00    +0.229 C 
ATOM     46  O   THR A   6      48.565  32.117  -2.608  0.00  0.00    -0.286 OA
ENDBRANCH  44  45
BRANCH  44  47
ATOM     47  CB  THR A   6      46.072  30.467  -3.245  0.00  0.00    +0.136 C 
ATOM     48  CG2 THR A   6      45.254  31.261  -4.245  0.00  0.00    +0.034 C 
BRANCH  47  49
ATOM     49  OG1 THR A   6      45.457  29.190  -3.068  0.00  0.00    -0.382 OA
ATOM     50  HG1 THR A   6      45.977  28.663  -2.411  0.00  0.00    +0.210 HD
ENDBRANCH  47  49
ENDBRANCH  44  47
ENDBRANCH  41  44
ENDBRANCH  39  40
BRANCH  39  51
ATOM     51  CB  VAL A   5      50.790  27.024  -3.264  0.00  0.00    +0.027 C 
ATOM     52  CG2 VAL A   5      51.716  26.411  -2.227  0.00  0.00    +0.002 C 
ATOM     53  CG1 VAL A   5      51.324  28.370  -3.717  0.00  0.00    +0.002 C 
ENDBRANCH  39  51
ENDBRANCH  37  39
ENDBRANCH  34  35
BRANCH  34  54
ATOM     54  CB  PHE A   4      46.322  23.857  -1.143  0.00  0.00    +0.055 C 
BRANCH  54  55
ATOM     55  CG  PHE A   4      45.614  22.549  -1.332  0.00  0.00    -0.020 A 
ATOM     56  CD2 PHE A   4      45.784  21.513  -0.419  0.00  0.00    -0.004 A 
ATOM     57  CE2 PHE A   4      45.136  20.297  -0.592  0.00  0.00    -0.000 A 
ATOM     58  CZ  PHE A   4      44.302  20.107  -1.680  0.00  0.00    -0.000 A 
ATOM     59  CE1 PHE A   4      44.117  21.134  -2.595  0.00  0.00    -0.000 A 
ATOM     60  CD1 PHE A   4      44.770  22.346  -2.419  0.00  0.00    -0.004 A 
ENDBRANCH  54  55
ENDBRANCH  34  54
ENDBRANCH  31  34
ENDBRANCH   1  30
BRANCH   1  61
ATOM     61  CB  TYR A   3      51.803  21.785  -0.178  0.00  0.00    +0.055 C 
BRANCH  61  62
ATOM     62  CG  TYR A   3      52.520  21.340   1.074  0.00  0.00    -0.020 A 
ATOM     63  CD2 TYR A   3      52.552  22.149   2.207  0.00  0.00    -0.001 A 
ATOM     64  CE2 TYR A   3      53.194  21.737   3.364  0.00  0.00    +0.036 A 
ATOM     65  CZ  TYR A   3      53.801  20.496   3.400  0.00  0.00    +0.134 A 
ATOM     66  CE1 TYR A   3      53.774  19.674   2.292  0.00  0.00    +0.036 A 
ATOM     67  CD1 TYR A   3      53.131  20.095   1.141  0.00  0.00    -0.001 A 
BRANCH  65  68
ATOM     68  OH  TYR A   3      54.435  20.071   4.544  0.00  0.00    -0.506 OA
ATOM     69  HH  TYR A   3      55.165  20.701   4.769  0.00  0.00    +0.292 HD
ENDBRANCH  65  68
ENDBRANCH  61  62
ENDBRANCH   1  61
TORSDOF 26
REMARK  Name = ../refined-set-2016/4pg9/4pg9_pocket.pdb
REMARK  337 active torsions:
REMARK  status: ('A' for Active; 'I' for Inactive)
REMARK    1  A    between atoms: _1  and  _3
REMARK    2  A    between atoms: _3  and  _4
REMARK    3  A    between atoms: _3  and  _6
REMARK    4  A    between atoms: _6  and  _7
REMARK    5  A    between atoms: _10  and  _12
REMARK    6  A    between atoms: _12  and  _13
REMARK    7  A    between atoms: _12  and  _15
REMARK    8  A    between atoms: _15  and  _16
REMARK    9  A    between atoms: _16  and  _17
REMARK   10  A    between atoms: _17  and  _18
REMARK   11  A    between atoms: _27  and  _29
REMARK   12  A    between atoms: _29  and  _30
REMARK   13  A    between atoms: _29  and  _32
REMARK   14  A    between atoms: _32  and  _33
REMARK   15  A    between atoms: _38  and  _39
REMARK   16  A    between atoms: _41  and  _43
REMARK   17  A    between atoms: _43  and  _44
REMARK   18  A    between atoms: _43  and  _46
REMARK   19  A    between atoms: _46  and  _47
REMARK   20  A    between atoms: _53  and  _55
REMARK   21  A    between atoms: _55  and  _56
REMARK   22  A    between atoms: _55  and  _58
REMARK   23  A    between atoms: _61  and  _63
REMARK   24  A    between atoms: _63  and  _64
REMARK   25  A    between atoms: _63  and  _66
REMARK   26  A    between atoms: _66  and  _67
REMARK   27  A    between atoms: _70  and  _72
REMARK   28  A    between atoms: _72  and  _73
REMARK   29  A    between atoms: _72  and  _75
REMARK   30  A    between atoms: _75  and  _76
REMARK   31  A    between atoms: _81  and  _82
REMARK   32  A    between atoms: _84  and  _86
REMARK   33  A    between atoms: _86  and  _87
REMARK   34  A    between atoms: _86  and  _89
REMARK   35  A    between atoms: _89  and  _90
REMARK   36  A    between atoms: _90  and  _91
REMARK   37  A    between atoms: _93  and  _95
REMARK   38  A    between atoms: _95  and  _96
REMARK   39  A    between atoms: _95  and  _98
REMARK   40  A    between atoms: _98  and  _99
REMARK   41  A    between atoms: _99  and  _100
REMARK   42  A    between atoms: _103  and  _105
REMARK   43  A    between atoms: _105  and  _106
REMARK   44  A    between atoms: _105  and  _108
REMARK   45  A    between atoms: _111  and  _113
REMARK   46  A    between atoms: _113  and  _114
REMARK   47  A    between atoms: _116  and  _118
REMARK   48  A    between atoms: _118  and  _119
REMARK   49  A    between atoms: _118  and  _121
REMARK   50  A    between atoms: _124  and  _126
REMARK   51  A    between atoms: _126  and  _127
REMARK   52  A    between atoms: _126  and  _129
REMARK   53  A    between atoms: _129  and  _130
REMARK   54  A    between atoms: _136  and  _138
REMARK   55  A    between atoms: _138  and  _139
REMARK   56  A    between atoms: _138  and  _141
REMARK   57  A    between atoms: _144  and  _146
REMARK   58  A    between atoms: _146  and  _147
REMARK   59  A    between atoms: _146  and  _149
REMARK   60  A    between atoms: _149  and  _150
REMARK   61  A    between atoms: _155  and  _156
REMARK   62  A    between atoms: _158  and  _160
REMARK   63  A    between atoms: _160  and  _161
REMARK   64  A    between atoms: _160  and  _163
REMARK   65  A    between atoms: _163  and  _164
REMARK   66  A    between atoms: _164  and  _165
REMARK   67  A    between atoms: _167  and  _169
REMARK   68  A    between atoms: _169  and  _170
REMARK   69  A    between atoms: _169  and  _172
REMARK   70  A    between atoms: _172  and  _173
REMARK   71  A    between atoms: _173  and  _174
REMARK   72  A    between atoms: _177  and  _179
REMARK   73  A    between atoms: _179  and  _180
REMARK   74  A    between atoms: _179  and  _182
REMARK   75  A    between atoms: _182  and  _183
REMARK   76  A    between atoms: _183  and  _184
REMARK   77  A    between atoms: _187  and  _189
REMARK   78  A    between atoms: _189  and  _190
REMARK   79  A    between atoms: _189  and  _192
REMARK   80  A    between atoms: _192  and  _193
REMARK   81  A    between atoms: _198  and  _199
REMARK   82  A    between atoms: _201  and  _203
REMARK   83  A    between atoms: _203  and  _204
REMARK   84  A    between atoms: _203  and  _206
REMARK   85  A    between atoms: _206  and  _207
REMARK   86  A    between atoms: _207  and  _208
REMARK   87  A    between atoms: _208  and  _209
REMARK   88  A    between atoms: _218  and  _220
REMARK   89  A    between atoms: _220  and  _221
REMARK   90  A    between atoms: _220  and  _223
REMARK   91  A    between atoms: _223  and  _224
REMARK   92  A    between atoms: _224  and  _225
REMARK   93  A    between atoms: _228  and  _230
REMARK   94  A    between atoms: _230  and  _231
REMARK   95  A    between atoms: _230  and  _233
REMARK   96  A    between atoms: _233  and  _234
REMARK   97  A    between atoms: _237  and  _239
REMARK   98  A    between atoms: _239  and  _240
REMARK   99  A    between atoms: _239  and  _242
REMARK  100  A    between atoms: _242  and  _243
REMARK  101  A    between atoms: _243  and  _244
REMARK  102  A    between atoms: _249  and  _251
REMARK  103  A    between atoms: _251  and  _252
REMARK  104  A    between atoms: _251  and  _254
REMARK  105  A    between atoms: _254  and  _255
REMARK  106  A    between atoms: _255  and  _256
REMARK  107  A    between atoms: _256  and  _257
REMARK  108  A    between atoms: _257  and  _258
REMARK  109  A    between atoms: _262  and  _264
REMARK  110  A    between atoms: _264  and  _265
REMARK  111  A    between atoms: _268  and  _270
REMARK  112  A    between atoms: _270  and  _271
REMARK  113  A    between atoms: _273  and  _275
REMARK  114  A    between atoms: _275  and  _276
REMARK  115  A    between atoms: _275  and  _278
REMARK  116  A    between atoms: _278  and  _279
REMARK  117  A    between atoms: _284  and  _286
REMARK  118  A    between atoms: _286  and  _287
REMARK  119  A    between atoms: _286  and  _289
REMARK  120  A    between atoms: _289  and  _290
REMARK  121  A    between atoms: _290  and  _291
REMARK  122  A    between atoms: _294  and  _296
REMARK  123  A    between atoms: _296  and  _297
REMARK  124  A    between atoms: _296  and  _299
REMARK  125  A    between atoms: _299  and  _300
REMARK  126  A    between atoms: _300  and  _301
REMARK  127  A    between atoms: _306  and  _308
REMARK  128  A    between atoms: _308  and  _309
REMARK  129  A    between atoms: _308  and  _311
REMARK  130  A    between atoms: _311  and  _312
REMARK  131  A    between atoms: _314  and  _316
REMARK  132  A    between atoms: _316  and  _317
REMARK  133  A    between atoms: _316  and  _319
REMARK  134  A    between atoms: _319  and  _320
REMARK  135  A    between atoms: _326  and  _328
REMARK  136  A    between atoms: _328  and  _329
REMARK  137  A    between atoms: _328  and  _331
REMARK  138  A    between atoms: _334  and  _336
REMARK  139  A    between atoms: _336  and  _337
REMARK  140  A    between atoms: _336  and  _339
REMARK  141  A    between atoms: _339  and  _340
REMARK  142  A    between atoms: _343  and  _345
REMARK  143  A    between atoms: _345  and  _346
REMARK  144  A    between atoms: _345  and  _348
REMARK  145  A    between atoms: _348  and  _349
REMARK  146  A    between atoms: _352  and  _354
REMARK  147  A    between atoms: _354  and  _355
REMARK  148  A    between atoms: _354  and  _357
REMARK  149  A    between atoms: _357  and  _358
REMARK  150  A    between atoms: _361  and  _363
REMARK  151  A    between atoms: _363  and  _364
REMARK  152  A    between atoms: _363  and  _366
REMARK  153  A    between atoms: _366  and  _367
REMARK  154  A    between atoms: _370  and  _372
REMARK  155  A    between atoms: _372  and  _373
REMARK  156  A    between atoms: _372  and  _375
REMARK  157  A    between atoms: _375  and  _376
REMARK  158  A    between atoms: _381  and  _382
REMARK  159  A    between atoms: _384  and  _386
REMARK  160  A    between atoms: _386  and  _387
REMARK  161  A    between atoms: _386  and  _389
REMARK  162  A    between atoms: _389  and  _390
REMARK  163  A    between atoms: _395  and  _396
REMARK  164  A    between atoms: _398  and  _400
REMARK  165  A    between atoms: _400  and  _401
REMARK  166  A    between atoms: _400  and  _403
REMARK  167  A    between atoms: _403  and  _404
REMARK  168  A    between atoms: _407  and  _409
REMARK  169  A    between atoms: _409  and  _410
REMARK  170  A    between atoms: _409  and  _412
REMARK  171  A    between atoms: _412  and  _413
REMARK  172  A    between atoms: _416  and  _418
REMARK  173  A    between atoms: _418  and  _419
REMARK  174  A    between atoms: _418  and  _421
REMARK  175  A    between atoms: _421  and  _422
REMARK  176  A    between atoms: _422  and  _423
REMARK  177  A    between atoms: _428  and  _430
REMARK  178  A    between atoms: _430  and  _431
REMARK  179  A    between atoms: _430  and  _433
REMARK  180  A    between atoms: _436  and  _438
REMARK  181  A    between atoms: _438  and  _439
REMARK  182  A    between atoms: _438  and  _441
REMARK  183  A    between atoms: _441  and  _442
REMARK  184  A    between atoms: _445  and  _447
REMARK  185  A    between atoms: _447  and  _448
REMARK  186  A    between atoms: _447  and  _450
REMARK  187  A    between atoms: _450  and  _451
REMARK  188  A    between atoms: _453  and  _455
REMARK  189  A    between atoms: _455  and  _456
REMARK  190  A    between atoms: _458  and  _460
REMARK  191  A    between atoms: _460  and  _461
REMARK  192  A    between atoms: _460  and  _463
REMARK  193  A    between atoms: _463  and  _464
REMARK  194  A    between atoms: _464  and  _759
REMARK  195  A    between atoms: _465  and  _467
REMARK  196  A    between atoms: _467  and  _468
REMARK  197  A    between atoms: _467  and  _470
REMARK  198  A    between atoms: _470  and  _471
REMARK  199  A    between atoms: _476  and  _477
REMARK  200  A    between atoms: _479  and  _481
REMARK  201  A    between atoms: _481  and  _482
REMARK  202  A    between atoms: _481  and  _484
REMARK  203  A    between atoms: _484  and  _485
REMARK  204  A    between atoms: _485  and  _486
REMARK  205  A    between atoms: _491  and  _493
REMARK  206  A    between atoms: _493  and  _494
REMARK  207  A    between atoms: _493  and  _496
REMARK  208  A    between atoms: _496  and  _497
REMARK  209  A    between atoms: _497  and  _498
REMARK  210  A    between atoms: _503  and  _505
REMARK  211  A    between atoms: _505  and  _506
REMARK  212  A    between atoms: _505  and  _508
REMARK  213  A    between atoms: _508  and  _509
REMARK  214  A    between atoms: _514  and  _515
REMARK  215  A    between atoms: _517  and  _519
REMARK  216  A    between atoms: _519  and  _520
REMARK  217  A    between atoms: _523  and  _525
REMARK  218  A    between atoms: _525  and  _526
REMARK  219  A    between atoms: _525  and  _528
REMARK  220  A    between atoms: _528  and  _529
REMARK  221  A    between atoms: _534  and  _535
REMARK  222  A    between atoms: _537  and  _539
REMARK  223  A    between atoms: _539  and  _540
REMARK  224  A    between atoms: _539  and  _542
REMARK  225  A    between atoms: _542  and  _543
REMARK  226  A    between atoms: _548  and  _549
REMARK  227  A    between atoms: _551  and  _553
REMARK  228  A    between atoms: _553  and  _554
REMARK  229  A    between atoms: _553  and  _556
REMARK  230  A    between atoms: _556  and  _557
REMARK  231  A    between atoms: _560  and  _562
REMARK  232  A    between atoms: _562  and  _563
REMARK  233  A    between atoms: _562  and  _565
REMARK  234  A    between atoms: _565  and  _566
REMARK  235  A    between atoms: _576  and  _578
REMARK  236  A    between atoms: _578  and  _579
REMARK  237  A    between atoms: _582  and  _584
REMARK  238  A    between atoms: _584  and  _585
REMARK  239  A    between atoms: _588  and  _590
REMARK  240  A    between atoms: _590  and  _591
REMARK  241  A    between atoms: _590  and  _593
REMARK  242  A    between atoms: _593  and  _594
REMARK  243  A    between atoms: _597  and  _599
REMARK  244  A    between atoms: _599  and  _600
REMARK  245  A    between atoms: _599  and  _602
REMARK  246  A    between atoms: _602  and  _603
REMARK  247  A    between atoms: _606  and  _608
REMARK  248  A    between atoms: _608  and  _609
REMARK  249  A    between atoms: _608  and  _611
REMARK  250  A    between atoms: _611  and  _612
REMARK  251  A    between atoms: _615  and  _617
REMARK  252  A    between atoms: _617  and  _618
REMARK  253  A    between atoms: _617  and  _620
REMARK  254  A    between atoms: _620  and  _621
REMARK  255  A    between atoms: _621  and  _622
REMARK  256  A    between atoms: _622  and  _623
REMARK  257  A    between atoms: _623  and  _624
REMARK  258  A    between atoms: _628  and  _630
REMARK  259  A    between atoms: _630  and  _631
REMARK  260  A    between atoms: _630  and  _633
REMARK  261  A    between atoms: _633  and  _634
REMARK  262  A    between atoms: _639  and  _641
REMARK  263  A    between atoms: _641  and  _642
REMARK  264  A    between atoms: _641  and  _644
REMARK  265  A    between atoms: _644  and  _645
REMARK  266  A    between atoms: _645  and  _646
REMARK  267  A    between atoms: _646  and  _647
REMARK  268  A    between atoms: _647  and  _648
REMARK  269  A    between atoms: _652  and  _654
REMARK  270  A    between atoms: _654  and  _655
REMARK  271  A    between atoms: _654  and  _657
REMARK  272  A    between atoms: _657  and  _658
REMARK  273  A    between atoms: _668  and  _670
REMARK  274  A    between atoms: _670  and  _671
REMARK  275  A    between atoms: _674  and  _676
REMARK  276  A    between atoms: _676  and  _677
REMARK  277  A    between atoms: _679  and  _681
REMARK  278  A    between atoms: _681  and  _682
REMARK  279  A    between atoms: _681  and  _684
REMARK  280  A    between atoms: _684  and  _685
REMARK  281  A    between atoms: _685  and  _686
REMARK  282  A    between atoms: _689  and  _691
REMARK  283  A    between atoms: _691  and  _692
REMARK  284  A    between atoms: _695  and  _697
REMARK  285  A    between atoms: _697  and  _698
REMARK  286  A    between atoms: _697  and  _700
REMARK  287  A    between atoms: _700  and  _701
REMARK  288  A    between atoms: _701  and  _702
REMARK  289  A    between atoms: _702  and  _703
REMARK  290  A    between atoms: _712  and  _714
REMARK  291  A    between atoms: _714  and  _715
REMARK  292  A    between atoms: _714  and  _717
REMARK  293  A    between atoms: _717  and  _718
REMARK  294  A    between atoms: _721  and  _723
REMARK  295  A    between atoms: _723  and  _724
REMARK  296  A    between atoms: _723  and  _726
REMARK  297  A    between atoms: _726  and  _727
REMARK  298  A    between atoms: _732  and  _733
REMARK  299  A    between atoms: _735  and  _737
REMARK  300  A    between atoms: _737  and  _738
REMARK  301  A    between atoms: _737  and  _740
REMARK  302  A    between atoms: _740  and  _741
REMARK  303  A    between atoms: _744  and  _746
REMARK  304  A    between atoms: _746  and  _747
REMARK  305  A    between atoms: _746  and  _749
REMARK  306  A    between atoms: _749  and  _750
REMARK  307  A    between atoms: _753  and  _755
REMARK  308  A    between atoms: _755  and  _756
REMARK  309  A    between atoms: _755  and  _758
REMARK  310  A    between atoms: _758  and  _759
REMARK  311  A    between atoms: _760  and  _762
REMARK  312  A    between atoms: _762  and  _763
REMARK  313  A    between atoms: _762  and  _765
REMARK  314  A    between atoms: _768  and  _770
REMARK  315  A    between atoms: _770  and  _771
REMARK  316  A    between atoms: _770  and  _773
REMARK  317  A    between atoms: _773  and  _774
REMARK  318  A    between atoms: _774  and  _775
REMARK  319  A    between atoms: _778  and  _780
REMARK  320  A    between atoms: _780  and  _781
REMARK  321  A    between atoms: _780  and  _783
REMARK  322  A    between atoms: _783  and  _784
REMARK  323  A    between atoms: _794  and  _796
REMARK  324  A    between atoms: _796  and  _797
REMARK  325  A    between atoms: _796  and  _799
REMARK  326  A    between atoms: _799  and  _800
REMARK  327  A    between atoms: _803  and  _805
REMARK  328  A    between atoms: _805  and  _806
REMARK  329  A    between atoms: _805  and  _808
REMARK  330  A    between atoms: _808  and  _809
REMARK  331  A    between atoms: _809  and  _810
REMARK  332  A    between atoms: _810  and  _811
REMARK  333  A    between atoms: _820  and  _822
REMARK  334  A    between atoms: _822  and  _823
REMARK  335  A    between atoms: _822  and  _825
REMARK  336  A    between atoms: _825  and  _826
REMARK  337  A    between atoms: _831  and  _832
REMARK                            x       y       z     vdW  Elec       q    Type
REMARK                         _______ _______ _______ _____ _____    ______ ____
ROOT
ATOM      1  C   MET A   2      49.381  29.908   0.836  0.00  0.00    +0.241 C 
ATOM      2  N   GLU A   3      49.885  29.197   1.842  0.00  0.00    -0.297 N 
ATOM      3  H   GLU A   3      50.080  29.671   2.747  0.00  0.00    +0.150 HD
ATOM      4  O   MET A   2      49.345  29.501  -0.324  0.00  0.00    -0.273 OA
ENDROOT
BRANCH   2   5
ATOM      5  CA  GLU A   3      50.172  27.775   1.713  0.00  0.00    +0.149 C 
BRANCH   5   6
ATOM      6  C   GLU A   3      49.376  27.061   2.794  0.00  0.00    +0.241 C 
ATOM      7  O   GLU A   3      49.328  27.522   3.931  0.00  0.00    -0.273 OA
ATOM      8  N   VAL A   4      48.740  25.953   2.425  0.00  0.00    -0.297 N 
ATOM      9  H   VAL A   4      48.763  25.675   1.423  0.00  0.00    +0.150 HD
BRANCH   8  10
ATOM     10  CA  VAL A   4      48.012  25.113   3.368  0.00  0.00    +0.149 C 
BRANCH  10  11
ATOM     11  C   VAL A   4      48.383  23.671   3.086  0.00  0.00    +0.241 C 
ATOM     12  N   GLY A   5      48.864  22.974   4.110  0.00  0.00    -0.296 N 
ATOM     13  H   GLY A   5      48.948  23.437   5.037  0.00  0.00    +0.150 HD
ATOM     14  O   VAL A   4      48.236  23.206   1.960  0.00  0.00    -0.273 OA
BRANCH  12  15
ATOM     15  CA  GLY A   5      49.278  21.583   3.978  0.00  0.00    +0.163 C 
BRANCH  15  16
ATOM     16  C   GLY A   5      48.304  20.647   4.667  0.00  0.00    +0.229 C 
ATOM     17  O   GLY A   5      47.768  20.975   5.729  0.00  0.00    -0.286 OA
ENDBRANCH  15  16
ENDBRANCH  12  15
ENDBRANCH  10  11
BRANCH  10  18
ATOM     18  CB  VAL A   4      46.483  25.247   3.216  0.00  0.00    +0.027 C 
ATOM     19  CG2 VAL A   4      45.778  24.503   4.341  0.00  0.00    +0.002 C 
ATOM     20  CG1 VAL A   4      46.067  26.709   3.200  0.00  0.00    +0.002 C 
ENDBRANCH  10  18
ENDBRANCH   8  10
ENDBRANCH   5   6
BRANCH   5  21
ATOM     21  CB  GLU A   3      51.666  27.469   1.877  0.00  0.00    +0.041 C 
BRANCH  21  22
ATOM     22  CG  GLU A   3      52.592  28.342   1.041  0.00  0.00    +0.116 C 
BRANCH  22  23
ATOM     23  CD  GLU A   3      53.984  27.752   0.870  0.00  0.00    +0.365 C 
ATOM     24  OE2 GLU A   3      54.297  26.728   1.509  0.00  0.00    -0.246 OA
ATOM     25  OE1 GLU A   3      54.773  28.318   0.089  0.00  0.00    -0.246 OA
ENDBRANCH  22  23
ENDBRANCH  21  22
ENDBRANCH   5  21
ENDBRANCH   2   5
BRANCH   1  26
ATOM     26  CA  MET A   2      48.841  31.290   1.198  0.00  0.00    +0.149 C 
BRANCH  26  29
ATOM     27  C   TYR A   1      49.710  33.490   0.560  0.00  0.00    +0.239 C 
ATOM     28  O   TYR A   1      49.909  33.841   1.731  0.00  0.00    -0.274 OA
ATOM     29  N   MET A   2      49.204  32.303   0.214  0.00  0.00    -0.297 N 
ATOM     30  H   MET A   2      49.064  32.094  -0.795  0.00  0.00    +0.150 HD
BRANCH  27  31
ATOM     31  CA  TYR A   1      50.042  34.430  -0.594  0.00  0.00    +0.149 C 
BRANCH  31  32
ATOM     32  N   TYR A   1      49.412  35.724  -0.390  0.00  0.00    -0.238 NA
ATOM     33  H   TYR A   1      49.624  36.264   0.474  0.00  0.00    +0.142 HD
ENDBRANCH  31  32
BRANCH  31  34
ATOM     34  CB  TYR A   1      51.558  34.574  -0.745  0.00  0.00    +0.053 C 
BRANCH  34  35
ATOM     35  CG  TYR A   1      52.211  33.256  -1.063  0.00  0.00    -0.020 A 
ATOM     36  CD2 TYR A   1      52.961  32.576  -0.111  0.00  0.00    -0.001 A 
ATOM     37  CE2 TYR A   1      53.538  31.350  -0.401  0.00  0.00    +0.036 A 
ATOM     38  CZ  TYR A   1      53.360  30.795  -1.652  0.00  0.00    +0.134 A 
ATOM     39  CE1 TYR A   1      52.613  31.447  -2.604  0.00  0.00    +0.036 A 
ATOM     40  CD1 TYR A   1      52.043  32.670  -2.306  0.00  0.00    -0.001 A 
BRANCH  38  41
ATOM     41  OH  TYR A   1      53.915  29.586  -1.956  0.00  0.00    -0.506 OA
ATOM     42  HH  TYR A   1      53.561  28.897  -1.339  0.00  0.00    +0.292 HD
ENDBRANCH  38  41
ENDBRANCH  34  35
ENDBRANCH  31  34
ENDBRANCH  27  31
ENDBRANCH  26  29
BRANCH  26  43
ATOM     43  CB  MET A   2      47.321  31.195   1.328  0.00  0.00    +0.041 C 
BRANCH  43  44
ATOM     44  CG  MET A   2      46.668  32.410   1.966  0.00  0.00    +0.060 C 
BRANCH  44  45
ATOM     45  SD  MET A   2      44.938  32.106   2.374  0.00  0.00    -0.139 S 
ATOM     46  CE  MET A   2      45.104  30.991   3.767  0.00  0.00    +0.069 C 
ENDBRANCH  44  45
ENDBRANCH  43  44
ENDBRANCH  26  43
ENDBRANCH   1  26
TORSDOF 20
REMARK  Name = ../refined-set-2016/4pg9/4pg9_pocket.pdb
REMARK  337 active torsions:
REMARK  status: ('A' for Active; 'I' for Inactive)
REMARK    1  A    between atoms: _1  and  _3
REMARK    2  A    between atoms: _3  and  _4
REMARK    3  A    between atoms: _3  and  _6
REMARK    4  A    between atoms: _6  and  _7
REMARK    5  A    between atoms: _10  and  _12
REMARK    6  A    between atoms: _12  and  _13
REMARK    7  A    between atoms: _12  and  _15
REMARK    8  A    between atoms: _15  and  _16
REMARK    9  A    between atoms: _16  and  _17
REMARK   10  A    between atoms: _17  and  _18
REMARK   11  A    between atoms: _27  and  _29
REMARK   12  A    between atoms: _29  and  _30
REMARK   13  A    between atoms: _29  and  _32
REMARK   14  A    between atoms: _32  and  _33
REMARK   15  A    between atoms: _38  and  _39
REMARK   16  A    between atoms: _41  and  _43
REMARK   17  A    between atoms: _43  and  _44
REMARK   18  A    between atoms: _43  and  _46
REMARK   19  A    between atoms: _46  and  _47
REMARK   20  A    between atoms: _53  and  _55
REMARK   21  A    between atoms: _55  and  _56
REMARK   22  A    between atoms: _55  and  _58
REMARK   23  A    between atoms: _61  and  _63
REMARK   24  A    between atoms: _63  and  _64
REMARK   25  A    between atoms: _63  and  _66
REMARK   26  A    between atoms: _66  and  _67
REMARK   27  A    between atoms: _70  and  _72
REMARK   28  A    between atoms: _72  and  _73
REMARK   29  A    between atoms: _72  and  _75
REMARK   30  A    between atoms: _75  and  _76
REMARK   31  A    between atoms: _81  and  _82
REMARK   32  A    between atoms: _84  and  _86
REMARK   33  A    between atoms: _86  and  _87
REMARK   34  A    between atoms: _86  and  _89
REMARK   35  A    between atoms: _89  and  _90
REMARK   36  A    between atoms: _90  and  _91
REMARK   37  A    between atoms: _93  and  _95
REMARK   38  A    between atoms: _95  and  _96
REMARK   39  A    between atoms: _95  and  _98
REMARK   40  A    between atoms: _98  and  _99
REMARK   41  A    between atoms: _99  and  _100
REMARK   42  A    between atoms: _103  and  _105
REMARK   43  A    between atoms: _105  and  _106
REMARK   44  A    between atoms: _105  and  _108
REMARK   45  A    between atoms: _111  and  _113
REMARK   46  A    between atoms: _113  and  _114
REMARK   47  A    between atoms: _116  and  _118
REMARK   48  A    between atoms: _118  and  _119
REMARK   49  A    between atoms: _118  and  _121
REMARK   50  A    between atoms: _124  and  _126
REMARK   51  A    between atoms: _126  and  _127
REMARK   52  A    between atoms: _126  and  _129
REMARK   53  A    between atoms: _129  and  _130
REMARK   54  A    between atoms: _136  and  _138
REMARK   55  A    between atoms: _138  and  _139
REMARK   56  A    between atoms: _138  and  _141
REMARK   57  A    between atoms: _144  and  _146
REMARK   58  A    between atoms: _146  and  _147
REMARK   59  A    between atoms: _146  and  _149
REMARK   60  A    between atoms: _149  and  _150
REMARK   61  A    between atoms: _155  and  _156
REMARK   62  A    between atoms: _158  and  _160
REMARK   63  A    between atoms: _160  and  _161
REMARK   64  A    between atoms: _160  and  _163
REMARK   65  A    between atoms: _163  and  _164
REMARK   66  A    between atoms: _164  and  _165
REMARK   67  A    between atoms: _167  and  _169
REMARK   68  A    between atoms: _169  and  _170
REMARK   69  A    between atoms: _169  and  _172
REMARK   70  A    between atoms: _172  and  _173
REMARK   71  A    between atoms: _173  and  _174
REMARK   72  A    between atoms: _177  and  _179
REMARK   73  A    between atoms: _179  and  _180
REMARK   74  A    between atoms: _179  and  _182
REMARK   75  A    between atoms: _182  and  _183
REMARK   76  A    between atoms: _183  and  _184
REMARK   77  A    between atoms: _187  and  _189
REMARK   78  A    between atoms: _189  and  _190
REMARK   79  A    between atoms: _189  and  _192
REMARK   80  A    between atoms: _192  and  _193
REMARK   81  A    between atoms: _198  and  _199
REMARK   82  A    between atoms: _201  and  _203
REMARK   83  A    between atoms: _203  and  _204
REMARK   84  A    between atoms: _203  and  _206
REMARK   85  A    between atoms: _206  and  _207
REMARK   86  A    between atoms: _207  and  _208
REMARK   87  A    between atoms: _208  and  _209
REMARK   88  A    between atoms: _218  and  _220
REMARK   89  A    between atoms: _220  and  _221
REMARK   90  A    between atoms: _220  and  _223
REMARK   91  A    between atoms: _223  and  _224
REMARK   92  A    between atoms: _224  and  _225
REMARK   93  A    between atoms: _228  and  _230
REMARK   94  A    between atoms: _230  and  _231
REMARK   95  A    between atoms: _230  and  _233
REMARK   96  A    between atoms: _233  and  _234
REMARK   97  A    between atoms: _237  and  _239
REMARK   98  A    between atoms: _239  and  _240
REMARK   99  A    between atoms: _239  and  _242
REMARK  100  A    between atoms: _242  and  _243
REMARK  101  A    between atoms: _243  and  _244
REMARK  102  A    between atoms: _249  and  _251
REMARK  103  A    between atoms: _251  and  _252
REMARK  104  A    between atoms: _251  and  _254
REMARK  105  A    between atoms: _254  and  _255
REMARK  106  A    between atoms: _255  and  _256
REMARK  107  A    between atoms: _256  and  _257
REMARK  108  A    between atoms: _257  and  _258
REMARK  109  A    between atoms: _262  and  _264
REMARK  110  A    between atoms: _264  and  _265
REMARK  111  A    between atoms: _268  and  _270
REMARK  112  A    between atoms: _270  and  _271
REMARK  113  A    between atoms: _273  and  _275
REMARK  114  A    between atoms: _275  and  _276
REMARK  115  A    between atoms: _275  and  _278
REMARK  116  A    between atoms: _278  and  _279
REMARK  117  A    between atoms: _284  and  _286
REMARK  118  A    between atoms: _286  and  _287
REMARK  119  A    between atoms: _286  and  _289
REMARK  120  A    between atoms: _289  and  _290
REMARK  121  A    between atoms: _290  and  _291
REMARK  122  A    between atoms: _294  and  _296
REMARK  123  A    between atoms: _296  and  _297
REMARK  124  A    between atoms: _296  and  _299
REMARK  125  A    between atoms: _299  and  _300
REMARK  126  A    between atoms: _300  and  _301
REMARK  127  A    between atoms: _306  and  _308
REMARK  128  A    between atoms: _308  and  _309
REMARK  129  A    between atoms: _308  and  _311
REMARK  130  A    between atoms: _311  and  _312
REMARK  131  A    between atoms: _314  and  _316
REMARK  132  A    between atoms: _316  and  _317
REMARK  133  A    between atoms: _316  and  _319
REMARK  134  A    between atoms: _319  and  _320
REMARK  135  A    between atoms: _326  and  _328
REMARK  136  A    between atoms: _328  and  _329
REMARK  137  A    between atoms: _328  and  _331
REMARK  138  A    between atoms: _334  and  _336
REMARK  139  A    between atoms: _336  and  _337
REMARK  140  A    between atoms: _336  and  _339
REMARK  141  A    between atoms: _339  and  _340
REMARK  142  A    between atoms: _343  and  _345
REMARK  143  A    between atoms: _345  and  _346
REMARK  144  A    between atoms: _345  and  _348
REMARK  145  A    between atoms: _348  and  _349
REMARK  146  A    between atoms: _352  and  _354
REMARK  147  A    between atoms: _354  and  _355
REMARK  148  A    between atoms: _354  and  _357
REMARK  149  A    between atoms: _357  and  _358
REMARK  150  A    between atoms: _361  and  _363
REMARK  151  A    between atoms: _363  and  _364
REMARK  152  A    between atoms: _363  and  _366
REMARK  153  A    between atoms: _366  and  _367
REMARK  154  A    between atoms: _370  and  _372
REMARK  155  A    between atoms: _372  and  _373
REMARK  156  A    between atoms: _372  and  _375
REMARK  157  A    between atoms: _375  and  _376
REMARK  158  A    between atoms: _381  and  _382
REMARK  159  A    between atoms: _384  and  _386
REMARK  160  A    between atoms: _386  and  _387
REMARK  161  A    between atoms: _386  and  _389
REMARK  162  A    between atoms: _389  and  _390
REMARK  163  A    between atoms: _395  and  _396
REMARK  164  A    between atoms: _398  and  _400
REMARK  165  A    between atoms: _400  and  _401
REMARK  166  A    between atoms: _400  and  _403
REMARK  167  A    between atoms: _403  and  _404
REMARK  168  A    between atoms: _407  and  _409
REMARK  169  A    between atoms: _409  and  _410
REMARK  170  A    between atoms: _409  and  _412
REMARK  171  A    between atoms: _412  and  _413
REMARK  172  A    between atoms: _416  and  _418
REMARK  173  A    between atoms: _418  and  _419
REMARK  174  A    between atoms: _418  and  _421
REMARK  175  A    between atoms: _421  and  _422
REMARK  176  A    between atoms: _422  and  _423
REMARK  177  A    between atoms: _428  and  _430
REMARK  178  A    between atoms: _430  and  _431
REMARK  179  A    between atoms: _430  and  _433
REMARK  180  A    between atoms: _436  and  _438
REMARK  181  A    between atoms: _438  and  _439
REMARK  182  A    between atoms: _438  and  _441
REMARK  183  A    between atoms: _441  and  _442
REMARK  184  A    between atoms: _445  and  _447
REMARK  185  A    between atoms: _447  and  _448
REMARK  186  A    between atoms: _447  and  _450
REMARK  187  A    between atoms: _450  and  _451
REMARK  188  A    between atoms: _453  and  _455
REMARK  189  A    between atoms: _455  and  _456
REMARK  190  A    between atoms: _458  and  _460
REMARK  191  A    between atoms: _460  and  _461
REMARK  192  A    between atoms: _460  and  _463
REMARK  193  A    between atoms: _463  and  _464
REMARK  194  A    between atoms: _464  and  _759
REMARK  195  A    between atoms: _465  and  _467
REMARK  196  A    between atoms: _467  and  _468
REMARK  197  A    between atoms: _467  and  _470
REMARK  198  A    between atoms: _470  and  _471
REMARK  199  A    between atoms: _476  and  _477
REMARK  200  A    between atoms: _479  and  _481
REMARK  201  A    between atoms: _481  and  _482
REMARK  202  A    between atoms: _481  and  _484
REMARK  203  A    between atoms: _484  and  _485
REMARK  204  A    between atoms: _485  and  _486
REMARK  205  A    between atoms: _491  and  _493
REMARK  206  A    between atoms: _493  and  _494
REMARK  207  A    between atoms: _493  and  _496
REMARK  208  A    between atoms: _496  and  _497
REMARK  209  A    between atoms: _497  and  _498
REMARK  210  A    between atoms: _503  and  _505
REMARK  211  A    between atoms: _505  and  _506
REMARK  212  A    between atoms: _505  and  _508
REMARK  213  A    between atoms: _508  and  _509
REMARK  214  A    between atoms: _514  and  _515
REMARK  215  A    between atoms: _517  and  _519
REMARK  216  A    between atoms: _519  and  _520
REMARK  217  A    between atoms: _523  and  _525
REMARK  218  A    between atoms: _525  and  _526
REMARK  219  A    between atoms: _525  and  _528
REMARK  220  A    between atoms: _528  and  _529
REMARK  221  A    between atoms: _534  and  _535
REMARK  222  A    between atoms: _537  and  _539
REMARK  223  A    between atoms: _539  and  _540
REMARK  224  A    between atoms: _539  and  _542
REMARK  225  A    between atoms: _542  and  _543
REMARK  226  A    between atoms: _548  and  _549
REMARK  227  A    between atoms: _551  and  _553
REMARK  228  A    between atoms: _553  and  _554
REMARK  229  A    between atoms: _553  and  _556
REMARK  230  A    between atoms: _556  and  _557
REMARK  231  A    between atoms: _560  and  _562
REMARK  232  A    between atoms: _562  and  _563
REMARK  233  A    between atoms: _562  and  _565
REMARK  234  A    between atoms: _565  and  _566
REMARK  235  A    between atoms: _576  and  _578
REMARK  236  A    between atoms: _578  and  _579
REMARK  237  A    between atoms: _582  and  _584
REMARK  238  A    between atoms: _584  and  _585
REMARK  239  A    between atoms: _588  and  _590
REMARK  240  A    between atoms: _590  and  _591
REMARK  241  A    between atoms: _590  and  _593
REMARK  242  A    between atoms: _593  and  _594
REMARK  243  A    between atoms: _597  and  _599
REMARK  244  A    between atoms: _599  and  _600
REMARK  245  A    between atoms: _599  and  _602
REMARK  246  A    between atoms: _602  and  _603
REMARK  247  A    between atoms: _606  and  _608
REMARK  248  A    between atoms: _608  and  _609
REMARK  249  A    between atoms: _608  and  _611
REMARK  250  A    between atoms: _611  and  _612
REMARK  251  A    between atoms: _615  and  _617
REMARK  252  A    between atoms: _617  and  _618
REMARK  253  A    between atoms: _617  and  _620
REMARK  254  A    between atoms: _620  and  _621
REMARK  255  A    between atoms: _621  and  _622
REMARK  256  A    between atoms: _622  and  _623
REMARK  257  A    between atoms: _623  and  _624
REMARK  258  A    between atoms: _628  and  _630
REMARK  259  A    between atoms: _630  and  _631
REMARK  260  A    between atoms: _630  and  _633
REMARK  261  A    between atoms: _633  and  _634
REMARK  262  A    between atoms: _639  and  _641
REMARK  263  A    between atoms: _641  and  _642
REMARK  264  A    between atoms: _641  and  _644
REMARK  265  A    between atoms: _644  and  _645
REMARK  266  A    between atoms: _645  and  _646
REMARK  267  A    between atoms: _646  and  _647
REMARK  268  A    between atoms: _647  and  _648
REMARK  269  A    between atoms: _652  and  _654
REMARK  270  A    between atoms: _654  and  _655
REMARK  271  A    between atoms: _654  and  _657
REMARK  272  A    between atoms: _657  and  _658
REMARK  273  A    between atoms: _668  and  _670
REMARK  274  A    between atoms: _670  and  _671
REMARK  275  A    between atoms: _674  and  _676
REMARK  276  A    between atoms: _676  and  _677
REMARK  277  A    between atoms: _679  and  _681
REMARK  278  A    between atoms: _681  and  _682
REMARK  279  A    between atoms: _681  and  _684
REMARK  280  A    between atoms: _684  and  _685
REMARK  281  A    between atoms: _685  and  _686
REMARK  282  A    between atoms: _689  and  _691
REMARK  283  A    between atoms: _691  and  _692
REMARK  284  A    between atoms: _695  and  _697
REMARK  285  A    between atoms: _697  and  _698
REMARK  286  A    between atoms: _697  and  _700
REMARK  287  A    between atoms: _700  and  _701
REMARK  288  A    between atoms: _701  and  _702
REMARK  289  A    between atoms: _702  and  _703
REMARK  290  A    between atoms: _712  and  _714
REMARK  291  A    between atoms: _714  and  _715
REMARK  292  A    between atoms: _714  and  _717
REMARK  293  A    between atoms: _717  and  _718
REMARK  294  A    between atoms: _721  and  _723
REMARK  295  A    between atoms: _723  and  _724
REMARK  296  A    between atoms: _723  and  _726
REMARK  297  A    between atoms: _726  and  _727
REMARK  298  A    between atoms: _732  and  _733
REMARK  299  A    between atoms: _735  and  _737
REMARK  300  A    between atoms: _737  and  _738
REMARK  301  A    between atoms: _737  and  _740
REMARK  302  A    between atoms: _740  and  _741
REMARK  303  A    between atoms: _744  and  _746
REMARK  304  A    between atoms: _746  and  _747
REMARK  305  A    between atoms: _746  and  _749
REMARK  306  A    between atoms: _749  and  _750
REMARK  307  A    between atoms: _753  and  _755
REMARK  308  A    between atoms: _755  and  _756
REMARK  309  A    between atoms: _755  and  _758
REMARK  310  A    between atoms: _758  and  _759
REMARK  311  A    between atoms: _760  and  _762
REMARK  312  A    between atoms: _762  and  _763
REMARK  313  A    between atoms: _762  and  _765
REMARK  314  A    between atoms: _768  and  _770
REMARK  315  A    between atoms: _770  and  _771
REMARK  316  A    between atoms: _770  and  _773
REMARK  317  A    between atoms: _773  and  _774
REMARK  318  A    between atoms: _774  and  _775
REMARK  319  A    between atoms: _778  and  _780
REMARK  320  A    between atoms: _780  and  _781
REMARK  321  A    between atoms: _780  and  _783
REMARK  322  A    between atoms: _783  and  _784
REMARK  323  A    between atoms: _794  and  _796
REMARK  324  A    between atoms: _796  and  _797
REMARK  325  A    between atoms: _796  and  _799
REMARK  326  A    between atoms: _799  and  _800
REMARK  327  A    between atoms: _803  and  _805
REMARK  328  A    between atoms: _805  and  _806
REMARK  329  A    between atoms: _805  and  _808
REMARK  330  A    between atoms: _808  and  _809
REMARK  331  A    between atoms: _809  and  _810
REMARK  332  A    between atoms: _810  and  _811
REMARK  333  A    between atoms: _820  and  _822
REMARK  334  A    between atoms: _822  and  _823
REMARK  335  A    between atoms: _822  and  _825
REMARK  336  A    between atoms: _825  and  _826
REMARK  337  A    between atoms: _831  and  _832
REMARK                            x       y       z     vdW  Elec       q    Type
REMARK                         _______ _______ _______ _____ _____    ______ ____
ROOT
ATOM      1  CA  VAL A   1      48.017  14.960   5.791  0.00  0.00    +0.133 C 
ENDROOT
BRANCH   1   2
ATOM      2  CB  VAL A   1      48.785  14.533   7.047  0.00  0.00    +0.023 C 
ATOM      3  CG2 VAL A   1      48.936  13.015   7.089  0.00  0.00    +0.002 C 
ATOM      4  CG1 VAL A   1      50.155  15.200   7.068  0.00  0.00    +0.002 C 
ENDBRANCH   1   2
BRANCH   1   5
ATOM      5  N   VAL A   1      47.750  16.396   5.758  0.00  0.00    -0.239 NA
ATOM      6  H   VAL A   1      47.399  16.866   6.617  0.00  0.00    +0.142 HD
ENDBRANCH   1   5
BRANCH   1   7
ATOM      7  C   VAL A   1      46.652  14.289   5.725  0.00  0.00    +0.224 C 
ATOM      8  O   VAL A   1      45.795  14.543   6.571  0.00  0.00    -0.287 OA
ENDBRANCH   1   7
TORSDOF 3
REMARK  Name = ../refined-set-2016/4pg9/4pg9_pocket.pdb
REMARK  337 active torsions:
REMARK  status: ('A' for Active; 'I' for Inactive)
REMARK    1  A    between atoms: _1  and  _3
REMARK    2  A    between atoms: _3  and  _4
REMARK    3  A    between atoms: _3  and  _6
REMARK    4  A    between atoms: _6  and  _7
REMARK    5  A    between atoms: _10  and  _12
REMARK    6  A    between atoms: _12  and  _13
REMARK    7  A    between atoms: _12  and  _15
REMARK    8  A    between atoms: _15  and  _16
REMARK    9  A    between atoms: _16  and  _17
REMARK   10  A    between atoms: _17  and  _18
REMARK   11  A    between atoms: _27  and  _29
REMARK   12  A    between atoms: _29  and  _30
REMARK   13  A    between atoms: _29  and  _32
REMARK   14  A    between atoms: _32  and  _33
REMARK   15  A    between atoms: _38  and  _39
REMARK   16  A    between atoms: _41  and  _43
REMARK   17  A    between atoms: _43  and  _44
REMARK   18  A    between atoms: _43  and  _46
REMARK   19  A    between atoms: _46  and  _47
REMARK   20  A    between atoms: _53  and  _55
REMARK   21  A    between atoms: _55  and  _56
REMARK   22  A    between atoms: _55  and  _58
REMARK   23  A    between atoms: _61  and  _63
REMARK   24  A    between atoms: _63  and  _64
REMARK   25  A    between atoms: _63  and  _66
REMARK   26  A    between atoms: _66  and  _67
REMARK   27  A    between atoms: _70  and  _72
REMARK   28  A    between atoms: _72  and  _73
REMARK   29  A    between atoms: _72  and  _75
REMARK   30  A    between atoms: _75  and  _76
REMARK   31  A    between atoms: _81  and  _82
REMARK   32  A    between atoms: _84  and  _86
REMARK   33  A    between atoms: _86  and  _87
REMARK   34  A    between atoms: _86  and  _89
REMARK   35  A    between atoms: _89  and  _90
REMARK   36  A    between atoms: _90  and  _91
REMARK   37  A    between atoms: _93  and  _95
REMARK   38  A    between atoms: _95  and  _96
REMARK   39  A    between atoms: _95  and  _98
REMARK   40  A    between atoms: _98  and  _99
REMARK   41  A    between atoms: _99  and  _100
REMARK   42  A    between atoms: _103  and  _105
REMARK   43  A    between atoms: _105  and  _106
REMARK   44  A    between atoms: _105  and  _108
REMARK   45  A    between atoms: _111  and  _113
REMARK   46  A    between atoms: _113  and  _114
REMARK   47  A    between atoms: _116  and  _118
REMARK   48  A    between atoms: _118  and  _119
REMARK   49  A    between atoms: _118  and  _121
REMARK   50  A    between atoms: _124  and  _126
REMARK   51  A    between atoms: _126  and  _127
REMARK   52  A    between atoms: _126  and  _129
REMARK   53  A    between atoms: _129  and  _130
REMARK   54  A    between atoms: _136  and  _138
REMARK   55  A    between atoms: _138  and  _139
REMARK   56  A    between atoms: _138  and  _141
REMARK   57  A    between atoms: _144  and  _146
REMARK   58  A    between atoms: _146  and  _147
REMARK   59  A    between atoms: _146  and  _149
REMARK   60  A    between atoms: _149  and  _150
REMARK   61  A    between atoms: _155  and  _156
REMARK   62  A    between atoms: _158  and  _160
REMARK   63  A    between atoms: _160  and  _161
REMARK   64  A    between atoms: _160  and  _163
REMARK   65  A    between atoms: _163  and  _164
REMARK   66  A    between atoms: _164  and  _165
REMARK   67  A    between atoms: _167  and  _169
REMARK   68  A    between atoms: _169  and  _170
REMARK   69  A    between atoms: _169  and  _172
REMARK   70  A    between atoms: _172  and  _173
REMARK   71  A    between atoms: _173  and  _174
REMARK   72  A    between atoms: _177  and  _179
REMARK   73  A    between atoms: _179  and  _180
REMARK   74  A    between atoms: _179  and  _182
REMARK   75  A    between atoms: _182  and  _183
REMARK   76  A    between atoms: _183  and  _184
REMARK   77  A    between atoms: _187  and  _189
REMARK   78  A    between atoms: _189  and  _190
REMARK   79  A    between atoms: _189  and  _192
REMARK   80  A    between atoms: _192  and  _193
REMARK   81  A    between atoms: _198  and  _199
REMARK   82  A    between atoms: _201  and  _203
REMARK   83  A    between atoms: _203  and  _204
REMARK   84  A    between atoms: _203  and  _206
REMARK   85  A    between atoms: _206  and  _207
REMARK   86  A    between atoms: _207  and  _208
REMARK   87  A    between atoms: _208  and  _209
REMARK   88  A    between atoms: _218  and  _220
REMARK   89  A    between atoms: _220  and  _221
REMARK   90  A    between atoms: _220  and  _223
REMARK   91  A    between atoms: _223  and  _224
REMARK   92  A    between atoms: _224  and  _225
REMARK   93  A    between atoms: _228  and  _230
REMARK   94  A    between atoms: _230  and  _231
REMARK   95  A    between atoms: _230  and  _233
REMARK   96  A    between atoms: _233  and  _234
REMARK   97  A    between atoms: _237  and  _239
REMARK   98  A    between atoms: _239  and  _240
REMARK   99  A    between atoms: _239  and  _242
REMARK  100  A    between atoms: _242  and  _243
REMARK  101  A    between atoms: _243  and  _244
REMARK  102  A    between atoms: _249  and  _251
REMARK  103  A    between atoms: _251  and  _252
REMARK  104  A    between atoms: _251  and  _254
REMARK  105  A    between atoms: _254  and  _255
REMARK  106  A    between atoms: _255  and  _256
REMARK  107  A    between atoms: _256  and  _257
REMARK  108  A    between atoms: _257  and  _258
REMARK  109  A    between atoms: _262  and  _264
REMARK  110  A    between atoms: _264  and  _265
REMARK  111  A    between atoms: _268  and  _270
REMARK  112  A    between atoms: _270  and  _271
REMARK  113  A    between atoms: _273  and  _275
REMARK  114  A    between atoms: _275  and  _276
REMARK  115  A    between atoms: _275  and  _278
REMARK  116  A    between atoms: _278  and  _279
REMARK  117  A    between atoms: _284  and  _286
REMARK  118  A    between atoms: _286  and  _287
REMARK  119  A    between atoms: _286  and  _289
REMARK  120  A    between atoms: _289  and  _290
REMARK  121  A    between atoms: _290  and  _291
REMARK  122  A    between atoms: _294  and  _296
REMARK  123  A    between atoms: _296  and  _297
REMARK  124  A    between atoms: _296  and  _299
REMARK  125  A    between atoms: _299  and  _300
REMARK  126  A    between atoms: _300  and  _301
REMARK  127  A    between atoms: _306  and  _308
REMARK  128  A    between atoms: _308  and  _309
REMARK  129  A    between atoms: _308  and  _311
REMARK  130  A    between atoms: _311  and  _312
REMARK  131  A    between atoms: _314  and  _316
REMARK  132  A    between atoms: _316  and  _317
REMARK  133  A    between atoms: _316  and  _319
REMARK  134  A    between atoms: _319  and  _320
REMARK  135  A    between atoms: _326  and  _328
REMARK  136  A    between atoms: _328  and  _329
REMARK  137  A    between atoms: _328  and  _331
REMARK  138  A    between atoms: _334  and  _336
REMARK  139  A    between atoms: _336  and  _337
REMARK  140  A    between atoms: _336  and  _339
REMARK  141  A    between atoms: _339  and  _340
REMARK  142  A    between atoms: _343  and  _345
REMARK  143  A    between atoms: _345  and  _346
REMARK  144  A    between atoms: _345  and  _348
REMARK  145  A    between atoms: _348  and  _349
REMARK  146  A    between atoms: _352  and  _354
REMARK  147  A    between atoms: _354  and  _355
REMARK  148  A    between atoms: _354  and  _357
REMARK  149  A    between atoms: _357  and  _358
REMARK  150  A    between atoms: _361  and  _363
REMARK  151  A    between atoms: _363  and  _364
REMARK  152  A    between atoms: _363  and  _366
REMARK  153  A    between atoms: _366  and  _367
REMARK  154  A    between atoms: _370  and  _372
REMARK  155  A    between atoms: _372  and  _373
REMARK  156  A    between atoms: _372  and  _375
REMARK  157  A    between atoms: _375  and  _376
REMARK  158  A    between atoms: _381  and  _382
REMARK  159  A    between atoms: _384  and  _386
REMARK  160  A    between atoms: _386  and  _387
REMARK  161  A    between atoms: _386  and  _389
REMARK  162  A    between atoms: _389  and  _390
REMARK  163  A    between atoms: _395  and  _396
REMARK  164  A    between atoms: _398  and  _400
REMARK  165  A    between atoms: _400  and  _401
REMARK  166  A    between atoms: _400  and  _403
REMARK  167  A    between atoms: _403  and  _404
REMARK  168  A    between atoms: _407  and  _409
REMARK  169  A    between atoms: _409  and  _410
REMARK  170  A    between atoms: _409  and  _412
REMARK  171  A    between atoms: _412  and  _413
REMARK  172  A    between atoms: _416  and  _418
REMARK  173  A    between atoms: _418  and  _419
REMARK  174  A    between atoms: _418  and  _421
REMARK  175  A    between atoms: _421  and  _422
REMARK  176  A    between atoms: _422  and  _423
REMARK  177  A    between atoms: _428  and  _430
REMARK  178  A    between atoms: _430  and  _431
REMARK  179  A    between atoms: _430  and  _433
REMARK  180  A    between atoms: _436  and  _438
REMARK  181  A    between atoms: _438  and  _439
REMARK  182  A    between atoms: _438  and  _441
REMARK  183  A    between atoms: _441  and  _442
REMARK  184  A    between atoms: _445  and  _447
REMARK  185  A    between atoms: _447  and  _448
REMARK  186  A    between atoms: _447  and  _450
REMARK  187  A    between atoms: _450  and  _451
REMARK  188  A    between atoms: _453  and  _455
REMARK  189  A    between atoms: _455  and  _456
REMARK  190  A    between atoms: _458  and  _460
REMARK  191  A    between atoms: _460  and  _461
REMARK  192  A    between atoms: _460  and  _463
REMARK  193  A    between atoms: _463  and  _464
REMARK  194  A    between atoms: _464  and  _759
REMARK  195  A    between atoms: _465  and  _467
REMARK  196  A    between atoms: _467  and  _468
REMARK  197  A    between atoms: _467  and  _470
REMARK  198  A    between atoms: _470  and  _471
REMARK  199  A    between atoms: _476  and  _477
REMARK  200  A    between atoms: _479  and  _481
REMARK  201  A    between atoms: _481  and  _482
REMARK  202  A    between atoms: _481  and  _484
REMARK  203  A    between atoms: _484  and  _485
REMARK  204  A    between atoms: _485  and  _486
REMARK  205  A    between atoms: _491  and  _493
REMARK  206  A    between atoms: _493  and  _494
REMARK  207  A    between atoms: _493  and  _496
REMARK  208  A    between atoms: _496  and  _497
REMARK  209  A    between atoms: _497  and  _498
REMARK  210  A    between atoms: _503  and  _505
REMARK  211  A    between atoms: _505  and  _506
REMARK  212  A    between atoms: _505  and  _508
REMARK  213  A    between atoms: _508  and  _509
REMARK  214  A    between atoms: _514  and  _515
REMARK  215  A    between atoms: _517  and  _519
REMARK  216  A    between atoms: _519  and  _520
REMARK  217  A    between atoms: _523  and  _525
REMARK  218  A    between atoms: _525  and  _526
REMARK  219  A    between atoms: _525  and  _528
REMARK  220  A    between atoms: _528  and  _529
REMARK  221  A    between atoms: _534  and  _535
REMARK  222  A    between atoms: _537  and  _539
REMARK  223  A    between atoms: _539  and  _540
REMARK  224  A    between atoms: _539  and  _542
REMARK  225  A    between atoms: _542  and  _543
REMARK  226  A    between atoms: _548  and  _549
REMARK  227  A    between atoms: _551  and  _553
REMARK  228  A    between atoms: _553  and  _554
REMARK  229  A    between atoms: _553  and  _556
REMARK  230  A    between atoms: _556  and  _557
REMARK  231  A    between atoms: _560  and  _562
REMARK  232  A    between atoms: _562  and  _563
REMARK  233  A    between atoms: _562  and  _565
REMARK  234  A    between atoms: _565  and  _566
REMARK  235  A    between atoms: _576  and  _578
REMARK  236  A    between atoms: _578  and  _579
REMARK  237  A    between atoms: _582  and  _584
REMARK  238  A    between atoms: _584  and  _585
REMARK  239  A    between atoms: _588  and  _590
REMARK  240  A    between atoms: _590  and  _591
REMARK  241  A    between atoms: _590  and  _593
REMARK  242  A    between atoms: _593  and  _594
REMARK  243  A    between atoms: _597  and  _599
REMARK  244  A    between atoms: _599  and  _600
REMARK  245  A    between atoms: _599  and  _602
REMARK  246  A    between atoms: _602  and  _603
REMARK  247  A    between atoms: _606  and  _608
REMARK  248  A    between atoms: _608  and  _609
REMARK  249  A    between atoms: _608  and  _611
REMARK  250  A    between atoms: _611  and  _612
REMARK  251  A    between atoms: _615  and  _617
REMARK  252  A    between atoms: _617  and  _618
REMARK  253  A    between atoms: _617  and  _620
REMARK  254  A    between atoms: _620  and  _621
REMARK  255  A    between atoms: _621  and  _622
REMARK  256  A    between atoms: _622  and  _623
REMARK  257  A    between atoms: _623  and  _624
REMARK  258  A    between atoms: _628  and  _630
REMARK  259  A    between atoms: _630  and  _631
REMARK  260  A    between atoms: _630  and  _633
REMARK  261  A    between atoms: _633  and  _634
REMARK  262  A    between atoms: _639  and  _641
REMARK  263  A    between atoms: _641  and  _642
REMARK  264  A    between atoms: _641  and  _644
REMARK  265  A    between atoms: _644  and  _645
REMARK  266  A    between atoms: _645  and  _646
REMARK  267  A    between atoms: _646  and  _647
REMARK  268  A    between atoms: _647  and  _648
REMARK  269  A    between atoms: _652  and  _654
REMARK  270  A    between atoms: _654  and  _655
REMARK  271  A    between atoms: _654  and  _657
REMARK  272  A    between atoms: _657  and  _658
REMARK  273  A    between atoms: _668  and  _670
REMARK  274  A    between atoms: _670  and  _671
REMARK  275  A    between atoms: _674  and  _676
REMARK  276  A    between atoms: _676  and  _677
REMARK  277  A    between atoms: _679  and  _681
REMARK  278  A    between atoms: _681  and  _682
REMARK  279  A    between atoms: _681  and  _684
REMARK  280  A    between atoms: _684  and  _685
REMARK  281  A    between atoms: _685  and  _686
REMARK  282  A    between atoms: _689  and  _691
REMARK  283  A    between atoms: _691  and  _692
REMARK  284  A    between atoms: _695  and  _697
REMARK  285  A    between atoms: _697  and  _698
REMARK  286  A    between atoms: _697  and  _700
REMARK  287  A    between atoms: _700  and  _701
REMARK  288  A    between atoms: _701  and  _702
REMARK  289  A    between atoms: _702  and  _703
REMARK  290  A    between atoms: _712  and  _714
REMARK  291  A    between atoms: _714  and  _715
REMARK  292  A    between atoms: _714  and  _717
REMARK  293  A    between atoms: _717  and  _718
REMARK  294  A    between atoms: _721  and  _723
REMARK  295  A    between atoms: _723  and  _724
REMARK  296  A    between atoms: _723  and  _726
REMARK  297  A    between atoms: _726  and  _727
REMARK  298  A    between atoms: _732  and  _733
REMARK  299  A    between atoms: _735  and  _737
REMARK  300  A    between atoms: _737  and  _738
REMARK  301  A    between atoms: _737  and  _740
REMARK  302  A    between atoms: _740  and  _741
REMARK  303  A    between atoms: _744  and  _746
REMARK  304  A    between atoms: _746  and  _747
REMARK  305  A    between atoms: _746  and  _749
REMARK  306  A    between atoms: _749  and  _750
REMARK  307  A    between atoms: _753  and  _755
REMARK  308  A    between atoms: _755  and  _756
REMARK  309  A    between atoms: _755  and  _758
REMARK  310  A    between atoms: _758  and  _759
REMARK  311  A    between atoms: _760  and  _762
REMARK  312  A    between atoms: _762  and  _763
REMARK  313  A    between atoms: _762  and  _765
REMARK  314  A    between atoms: _768  and  _770
REMARK  315  A    between atoms: _770  and  _771
REMARK  316  A    between atoms: _770  and  _773
REMARK  317  A    between atoms: _773  and  _774
REMARK  318  A    between atoms: _774  and  _775
REMARK  319  A    between atoms: _778  and  _780
REMARK  320  A    between atoms: _780  and  _781
REMARK  321  A    between atoms: _780  and  _783
REMARK  322  A    between atoms: _783  and  _784
REMARK  323  A    between atoms: _794  and  _796
REMARK  324  A    between atoms: _796  and  _797
REMARK  325  A    between atoms: _796  and  _799
REMARK  326  A    between atoms: _799  and  _800
REMARK  327  A    between atoms: _803  and  _805
REMARK  328  A    between atoms: _805  and  _806
REMARK  329  A    between atoms: _805  and  _808
REMARK  330  A    between atoms: _808  and  _809
REMARK  331  A    between atoms: _809  and  _810
REMARK  332  A    between atoms: _810  and  _811
REMARK  333  A    between atoms: _820  and  _822
REMARK  334  A    between atoms: _822  and  _823
REMARK  335  A    between atoms: _822  and  _825
REMARK  336  A    between atoms: _825  and  _826
REMARK  337  A    between atoms: _831  and  _832
REMARK                            x       y       z     vdW  Elec       q    Type
REMARK                         _______ _______ _______ _____ _____    ______ ____
ROOT
ATOM      1  CA  PHE A   1      48.288  20.289   9.651  0.00  0.00    +0.149 C 
ENDROOT
BRANCH   1   2
ATOM      2  C   PHE A   1      49.331  21.417   9.693  0.00  0.00    +0.239 C 
ATOM      3  O   PHE A   1      49.987  21.602  10.719  0.00  0.00    -0.274 OA
ATOM      4  N   VAL A   2      49.475  22.173   8.603  0.00  0.00    -0.298 N 
ATOM      5  H   VAL A   2      48.993  21.885   7.728  0.00  0.00    +0.150 HD
BRANCH   4   6
ATOM      6  CA  VAL A   2      50.288  23.397   8.590  0.00  0.00    +0.137 C 
BRANCH   6   7
ATOM      7  CB  VAL A   2      51.733  23.135   8.095  0.00  0.00    +0.026 C 
ATOM      8  CG2 VAL A   2      52.501  22.266   9.081  0.00  0.00    +0.002 C 
ATOM      9  CG1 VAL A   2      51.738  22.507   6.706  0.00  0.00    +0.002 C 
ENDBRANCH   6   7
BRANCH   6  10
ATOM     10  C   VAL A   2      49.662  24.476   7.695  0.00  0.00    +0.227 C 
ATOM     11  O   VAL A   2      48.885  24.165   6.791  0.00  0.00    -0.286 OA
ENDBRANCH   6  10
ENDBRANCH   4   6
ENDBRANCH   1   2
BRANCH   1  12
ATOM     12  N   PHE A   1      47.250  20.414   8.617  0.00  0.00    -0.238 NA
ATOM     13  H   PHE A   1      47.532  20.573   7.628  0.00  0.00    +0.142 HD
ENDBRANCH   1  12
BRANCH   1  14
ATOM     14  CB  PHE A   1      48.954  18.901   9.571  0.00  0.00    +0.053 C 
BRANCH  14  15
ATOM     15  CG  PHE A   1      50.048  18.788   8.543  0.00  0.00    -0.020 A 
ATOM     16  CD2 PHE A   1      51.371  18.625   8.937  0.00  0.00    -0.004 A 
ATOM     17  CE2 PHE A   1      52.387  18.514   7.999  0.00  0.00    -0.000 A 
ATOM     18  CZ  PHE A   1      52.086  18.554   6.649  0.00  0.00    -0.000 A 
ATOM     19  CE1 PHE A   1      50.771  18.709   6.241  0.00  0.00    -0.000 A 
ATOM     20  CD1 PHE A   1      49.759  18.817   7.185  0.00  0.00    -0.004 A 
ENDBRANCH  14  15
ENDBRANCH   1  14
TORSDOF 7
REMARK  Name = ../refined-set-2016/4pg9/4pg9_pocket.pdb
REMARK  337 active torsions:
REMARK  status: ('A' for Active; 'I' for Inactive)
REMARK    1  A    between atoms: _1  and  _3
REMARK    2  A    between atoms: _3  and  _4
REMARK    3  A    between atoms: _3  and  _6
REMARK    4  A    between atoms: _6  and  _7
REMARK    5  A    between atoms: _10  and  _12
REMARK    6  A    between atoms: _12  and  _13
REMARK    7  A    between atoms: _12  and  _15
REMARK    8  A    between atoms: _15  and  _16
REMARK    9  A    between atoms: _16  and  _17
REMARK   10  A    between atoms: _17  and  _18
REMARK   11  A    between atoms: _27  and  _29
REMARK   12  A    between atoms: _29  and  _30
REMARK   13  A    between atoms: _29  and  _32
REMARK   14  A    between atoms: _32  and  _33
REMARK   15  A    between atoms: _38  and  _39
REMARK   16  A    between atoms: _41  and  _43
REMARK   17  A    between atoms: _43  and  _44
REMARK   18  A    between atoms: _43  and  _46
REMARK   19  A    between atoms: _46  and  _47
REMARK   20  A    between atoms: _53  and  _55
REMARK   21  A    between atoms: _55  and  _56
REMARK   22  A    between atoms: _55  and  _58
REMARK   23  A    between atoms: _61  and  _63
REMARK   24  A    between atoms: _63  and  _64
REMARK   25  A    between atoms: _63  and  _66
REMARK   26  A    between atoms: _66  and  _67
REMARK   27  A    between atoms: _70  and  _72
REMARK   28  A    between atoms: _72  and  _73
REMARK   29  A    between atoms: _72  and  _75
REMARK   30  A    between atoms: _75  and  _76
REMARK   31  A    between atoms: _81  and  _82
REMARK   32  A    between atoms: _84  and  _86
REMARK   33  A    between atoms: _86  and  _87
REMARK   34  A    between atoms: _86  and  _89
REMARK   35  A    between atoms: _89  and  _90
REMARK   36  A    between atoms: _90  and  _91
REMARK   37  A    between atoms: _93  and  _95
REMARK   38  A    between atoms: _95  and  _96
REMARK   39  A    between atoms: _95  and  _98
REMARK   40  A    between atoms: _98  and  _99
REMARK   41  A    between atoms: _99  and  _100
REMARK   42  A    between atoms: _103  and  _105
REMARK   43  A    between atoms: _105  and  _106
REMARK   44  A    between atoms: _105  and  _108
REMARK   45  A    between atoms: _111  and  _113
REMARK   46  A    between atoms: _113  and  _114
REMARK   47  A    between atoms: _116  and  _118
REMARK   48  A    between atoms: _118  and  _119
REMARK   49  A    between atoms: _118  and  _121
REMARK   50  A    between atoms: _124  and  _126
REMARK   51  A    between atoms: _126  and  _127
REMARK   52  A    between atoms: _126  and  _129
REMARK   53  A    between atoms: _129  and  _130
REMARK   54  A    between atoms: _136  and  _138
REMARK   55  A    between atoms: _138  and  _139
REMARK   56  A    between atoms: _138  and  _141
REMARK   57  A    between atoms: _144  and  _146
REMARK   58  A    between atoms: _146  and  _147
REMARK   59  A    between atoms: _146  and  _149
REMARK   60  A    between atoms: _149  and  _150
REMARK   61  A    between atoms: _155  and  _156
REMARK   62  A    between atoms: _158  and  _160
REMARK   63  A    between atoms: _160  and  _161
REMARK   64  A    between atoms: _160  and  _163
REMARK   65  A    between atoms: _163  and  _164
REMARK   66  A    between atoms: _164  and  _165
REMARK   67  A    between atoms: _167  and  _169
REMARK   68  A    between atoms: _169  and  _170
REMARK   69  A    between atoms: _169  and  _172
REMARK   70  A    between atoms: _172  and  _173
REMARK   71  A    between atoms: _173  and  _174
REMARK   72  A    between atoms: _177  and  _179
REMARK   73  A    between atoms: _179  and  _180
REMARK   74  A    between atoms: _179  and  _182
REMARK   75  A    between atoms: _182  and  _183
REMARK   76  A    between atoms: _183  and  _184
REMARK   77  A    between atoms: _187  and  _189
REMARK   78  A    between atoms: _189  and  _190
REMARK   79  A    between atoms: _189  and  _192
REMARK   80  A    between atoms: _192  and  _193
REMARK   81  A    between atoms: _198  and  _199
REMARK   82  A    between atoms: _201  and  _203
REMARK   83  A    between atoms: _203  and  _204
REMARK   84  A    between atoms: _203  and  _206
REMARK   85  A    between atoms: _206  and  _207
REMARK   86  A    between atoms: _207  and  _208
REMARK   87  A    between atoms: _208  and  _209
REMARK   88  A    between atoms: _218  and  _220
REMARK   89  A    between atoms: _220  and  _221
REMARK   90  A    between atoms: _220  and  _223
REMARK   91  A    between atoms: _223  and  _224
REMARK   92  A    between atoms: _224  and  _225
REMARK   93  A    between atoms: _228  and  _230
REMARK   94  A    between atoms: _230  and  _231
REMARK   95  A    between atoms: _230  and  _233
REMARK   96  A    between atoms: _233  and  _234
REMARK   97  A    between atoms: _237  and  _239
REMARK   98  A    between atoms: _239  and  _240
REMARK   99  A    between atoms: _239  and  _242
REMARK  100  A    between atoms: _242  and  _243
REMARK  101  A    between atoms: _243  and  _244
REMARK  102  A    between atoms: _249  and  _251
REMARK  103  A    between atoms: _251  and  _252
REMARK  104  A    between atoms: _251  and  _254
REMARK  105  A    between atoms: _254  and  _255
REMARK  106  A    between atoms: _255  and  _256
REMARK  107  A    between atoms: _256  and  _257
REMARK  108  A    between atoms: _257  and  _258
REMARK  109  A    between atoms: _262  and  _264
REMARK  110  A    between atoms: _264  and  _265
REMARK  111  A    between atoms: _268  and  _270
REMARK  112  A    between atoms: _270  and  _271
REMARK  113  A    between atoms: _273  and  _275
REMARK  114  A    between atoms: _275  and  _276
REMARK  115  A    between atoms: _275  and  _278
REMARK  116  A    between atoms: _278  and  _279
REMARK  117  A    between atoms: _284  and  _286
REMARK  118  A    between atoms: _286  and  _287
REMARK  119  A    between atoms: _286  and  _289
REMARK  120  A    between atoms: _289  and  _290
REMARK  121  A    between atoms: _290  and  _291
REMARK  122  A    between atoms: _294  and  _296
REMARK  123  A    between atoms: _296  and  _297
REMARK  124  A    between atoms: _296  and  _299
REMARK  125  A    between atoms: _299  and  _300
REMARK  126  A    between atoms: _300  and  _301
REMARK  127  A    between atoms: _306  and  _308
REMARK  128  A    between atoms: _308  and  _309
REMARK  129  A    between atoms: _308  and  _311
REMARK  130  A    between atoms: _311  and  _312
REMARK  131  A    between atoms: _314  and  _316
REMARK  132  A    between atoms: _316  and  _317
REMARK  133  A    between atoms: _316  and  _319
REMARK  134  A    between atoms: _319  and  _320
REMARK  135  A    between atoms: _326  and  _328
REMARK  136  A    between atoms: _328  and  _329
REMARK  137  A    between atoms: _328  and  _331
REMARK  138  A    between atoms: _334  and  _336
REMARK  139  A    between atoms: _336  and  _337
REMARK  140  A    between atoms: _336  and  _339
REMARK  141  A    between atoms: _339  and  _340
REMARK  142  A    between atoms: _343  and  _345
REMARK  143  A    between atoms: _345  and  _346
REMARK  144  A    between atoms: _345  and  _348
REMARK  145  A    between atoms: _348  and  _349
REMARK  146  A    between atoms: _352  and  _354
REMARK  147  A    between atoms: _354  and  _355
REMARK  148  A    between atoms: _354  and  _357
REMARK  149  A    between atoms: _357  and  _358
REMARK  150  A    between atoms: _361  and  _363
REMARK  151  A    between atoms: _363  and  _364
REMARK  152  A    between atoms: _363  and  _366
REMARK  153  A    between atoms: _366  and  _367
REMARK  154  A    between atoms: _370  and  _372
REMARK  155  A    between atoms: _372  and  _373
REMARK  156  A    between atoms: _372  and  _375
REMARK  157  A    between atoms: _375  and  _376
REMARK  158  A    between atoms: _381  and  _382
REMARK  159  A    between atoms: _384  and  _386
REMARK  160  A    between atoms: _386  and  _387
REMARK  161  A    between atoms: _386  and  _389
REMARK  162  A    between atoms: _389  and  _390
REMARK  163  A    between atoms: _395  and  _396
REMARK  164  A    between atoms: _398  and  _400
REMARK  165  A    between atoms: _400  and  _401
REMARK  166  A    between atoms: _400  and  _403
REMARK  167  A    between atoms: _403  and  _404
REMARK  168  A    between atoms: _407  and  _409
REMARK  169  A    between atoms: _409  and  _410
REMARK  170  A    between atoms: _409  and  _412
REMARK  171  A    between atoms: _412  and  _413
REMARK  172  A    between atoms: _416  and  _418
REMARK  173  A    between atoms: _418  and  _419
REMARK  174  A    between atoms: _418  and  _421
REMARK  175  A    between atoms: _421  and  _422
REMARK  176  A    between atoms: _422  and  _423
REMARK  177  A    between atoms: _428  and  _430
REMARK  178  A    between atoms: _430  and  _431
REMARK  179  A    between atoms: _430  and  _433
REMARK  180  A    between atoms: _436  and  _438
REMARK  181  A    between atoms: _438  and  _439
REMARK  182  A    between atoms: _438  and  _441
REMARK  183  A    between atoms: _441  and  _442
REMARK  184  A    between atoms: _445  and  _447
REMARK  185  A    between atoms: _447  and  _448
REMARK  186  A    between atoms: _447  and  _450
REMARK  187  A    between atoms: _450  and  _451
REMARK  188  A    between atoms: _453  and  _455
REMARK  189  A    between atoms: _455  and  _456
REMARK  190  A    between atoms: _458  and  _460
REMARK  191  A    between atoms: _460  and  _461
REMARK  192  A    between atoms: _460  and  _463
REMARK  193  A    between atoms: _463  and  _464
REMARK  194  A    between atoms: _464  and  _759
REMARK  195  A    between atoms: _465  and  _467
REMARK  196  A    between atoms: _467  and  _468
REMARK  197  A    between atoms: _467  and  _470
REMARK  198  A    between atoms: _470  and  _471
REMARK  199  A    between atoms: _476  and  _477
REMARK  200  A    between atoms: _479  and  _481
REMARK  201  A    between atoms: _481  and  _482
REMARK  202  A    between atoms: _481  and  _484
REMARK  203  A    between atoms: _484  and  _485
REMARK  204  A    between atoms: _485  and  _486
REMARK  205  A    between atoms: _491  and  _493
REMARK  206  A    between atoms: _493  and  _494
REMARK  207  A    between atoms: _493  and  _496
REMARK  208  A    between atoms: _496  and  _497
REMARK  209  A    between atoms: _497  and  _498
REMARK  210  A    between atoms: _503  and  _505
REMARK  211  A    between atoms: _505  and  _506
REMARK  212  A    between atoms: _505  and  _508
REMARK  213  A    between atoms: _508  and  _509
REMARK  214  A    between atoms: _514  and  _515
REMARK  215  A    between atoms: _517  and  _519
REMARK  216  A    between atoms: _519  and  _520
REMARK  217  A    between atoms: _523  and  _525
REMARK  218  A    between atoms: _525  and  _526
REMARK  219  A    between atoms: _525  and  _528
REMARK  220  A    between atoms: _528  and  _529
REMARK  221  A    between atoms: _534  and  _535
REMARK  222  A    between atoms: _537  and  _539
REMARK  223  A    between atoms: _539  and  _540
REMARK  224  A    between atoms: _539  and  _542
REMARK  225  A    between atoms: _542  and  _543
REMARK  226  A    between atoms: _548  and  _549
REMARK  227  A    between atoms: _551  and  _553
REMARK  228  A    between atoms: _553  and  _554
REMARK  229  A    between atoms: _553  and  _556
REMARK  230  A    between atoms: _556  and  _557
REMARK  231  A    between atoms: _560  and  _562
REMARK  232  A    between atoms: _562  and  _563
REMARK  233  A    between atoms: _562  and  _565
REMARK  234  A    between atoms: _565  and  _566
REMARK  235  A    between atoms: _576  and  _578
REMARK  236  A    between atoms: _578  and  _579
REMARK  237  A    between atoms: _582  and  _584
REMARK  238  A    between atoms: _584  and  _585
REMARK  239  A    between atoms: _588  and  _590
REMARK  240  A    between atoms: _590  and  _591
REMARK  241  A    between atoms: _590  and  _593
REMARK  242  A    between atoms: _593  and  _594
REMARK  243  A    between atoms: _597  and  _599
REMARK  244  A    between atoms: _599  and  _600
REMARK  245  A    between atoms: _599  and  _602
REMARK  246  A    between atoms: _602  and  _603
REMARK  247  A    between atoms: _606  and  _608
REMARK  248  A    between atoms: _608  and  _609
REMARK  249  A    between atoms: _608  and  _611
REMARK  250  A    between atoms: _611  and  _612
REMARK  251  A    between atoms: _615  and  _617
REMARK  252  A    between atoms: _617  and  _618
REMARK  253  A    between atoms: _617  and  _620
REMARK  254  A    between atoms: _620  and  _621
REMARK  255  A    between atoms: _621  and  _622
REMARK  256  A    between atoms: _622  and  _623
REMARK  257  A    between atoms: _623  and  _624
REMARK  258  A    between atoms: _628  and  _630
REMARK  259  A    between atoms: _630  and  _631
REMARK  260  A    between atoms: _630  and  _633
REMARK  261  A    between atoms: _633  and  _634
REMARK  262  A    between atoms: _639  and  _641
REMARK  263  A    between atoms: _641  and  _642
REMARK  264  A    between atoms: _641  and  _644
REMARK  265  A    between atoms: _644  and  _645
REMARK  266  A    between atoms: _645  and  _646
REMARK  267  A    between atoms: _646  and  _647
REMARK  268  A    between atoms: _647  and  _648
REMARK  269  A    between atoms: _652  and  _654
REMARK  270  A    between atoms: _654  and  _655
REMARK  271  A    between atoms: _654  and  _657
REMARK  272  A    between atoms: _657  and  _658
REMARK  273  A    between atoms: _668  and  _670
REMARK  274  A    between atoms: _670  and  _671
REMARK  275  A    between atoms: _674  and  _676
REMARK  276  A    between atoms: _676  and  _677
REMARK  277  A    between atoms: _679  and  _681
REMARK  278  A    between atoms: _681  and  _682
REMARK  279  A    between atoms: _681  and  _684
REMARK  280  A    between atoms: _684  and  _685
REMARK  281  A    between atoms: _685  and  _686
REMARK  282  A    between atoms: _689  and  _691
REMARK  283  A    between atoms: _691  and  _692
REMARK  284  A    between atoms: _695  and  _697
REMARK  285  A    between atoms: _697  and  _698
REMARK  286  A    between atoms: _697  and  _700
REMARK  287  A    between atoms: _700  and  _701
REMARK  288  A    between atoms: _701  and  _702
REMARK  289  A    between atoms: _702  and  _703
REMARK  290  A    between atoms: _712  and  _714
REMARK  291  A    between atoms: _714  and  _715
REMARK  292  A    between atoms: _714  and  _717
REMARK  293  A    between atoms: _717  and  _718
REMARK  294  A    between atoms: _721  and  _723
REMARK  295  A    between atoms: _723  and  _724
REMARK  296  A    between atoms: _723  and  _726
REMARK  297  A    between atoms: _726  and  _727
REMARK  298  A    between atoms: _732  and  _733
REMARK  299  A    between atoms: _735  and  _737
REMARK  300  A    between atoms: _737  and  _738
REMARK  301  A    between atoms: _737  and  _740
REMARK  302  A    between atoms: _740  and  _741
REMARK  303  A    between atoms: _744  and  _746
REMARK  304  A    between atoms: _746  and  _747
REMARK  305  A    between atoms: _746  and  _749
REMARK  306  A    between atoms: _749  and  _750
REMARK  307  A    between atoms: _753  and  _755
REMARK  308  A    between atoms: _755  and  _756
REMARK  309  A    between atoms: _755  and  _758
REMARK  310  A    between atoms: _758  and  _759
REMARK  311  A    between atoms: _760  and  _762
REMARK  312  A    between atoms: _762  and  _763
REMARK  313  A    between atoms: _762  and  _765
REMARK  314  A    between atoms: _768  and  _770
REMARK  315  A    between atoms: _770  and  _771
REMARK  316  A    between atoms: _770  and  _773
REMARK  317  A    between atoms: _773  and  _774
REMARK  318  A    between atoms: _774  and  _775
REMARK  319  A    between atoms: _778  and  _780
REMARK  320  A    between atoms: _780  and  _781
REMARK  321  A    between atoms: _780  and  _783
REMARK  322  A    between atoms: _783  and  _784
REMARK  323  A    between atoms: _794  and  _796
REMARK  324  A    between atoms: _796  and  _797
REMARK  325  A    between atoms: _796  and  _799
REMARK  326  A    between atoms: _799  and  _800
REMARK  327  A    between atoms: _803  and  _805
REMARK  328  A    between atoms: _805  and  _806
REMARK  329  A    between atoms: _805  and  _808
REMARK  330  A    between atoms: _808  and  _809
REMARK  331  A    between atoms: _809  and  _810
REMARK  332  A    between atoms: _810  and  _811
REMARK  333  A    between atoms: _820  and  _822
REMARK  334  A    between atoms: _822  and  _823
REMARK  335  A    between atoms: _822  and  _825
REMARK  336  A    between atoms: _825  and  _826
REMARK  337  A    between atoms: _831  and  _832
REMARK                            x       y       z     vdW  Elec       q    Type
REMARK                         _______ _______ _______ _____ _____    ______ ____
ROOT
ATOM      1  CG  TYR A   1      54.990  27.125   7.105  0.00  0.00    -0.020 A 
ATOM      2  CD2 TYR A   1      54.223  25.971   7.154  0.00  0.00    -0.001 A 
ATOM      3  CE2 TYR A   1      53.793  25.345   5.992  0.00  0.00    +0.036 A 
ATOM      4  CZ  TYR A   1      54.134  25.867   4.765  0.00  0.00    +0.134 A 
ATOM      5  CE1 TYR A   1      54.896  27.008   4.688  0.00  0.00    +0.036 A 
ATOM      6  CD1 TYR A   1      55.322  27.630   5.851  0.00  0.00    -0.001 A 
ENDROOT
BRANCH   4   7
ATOM      7  OH  TYR A   1      53.705  25.250   3.611  0.00  0.00    -0.506 OA
ATOM      8  HH  TYR A   1      53.145  25.879   3.090  0.00  0.00    +0.292 HD
ENDBRANCH   4   7
BRANCH   1   9
ATOM      9  CB  TYR A   1      55.471  27.809   8.374  0.00  0.00    +0.051 C 
BRANCH   9  10
ATOM     10  CA  TYR A   1      54.474  28.800   8.982  0.00  0.00    +0.137 C 
BRANCH  10  11
ATOM     11  N   TYR A   1      55.078  30.118   9.166  0.00  0.00    -0.239 NA
ATOM     12  H   TYR A   1      56.114  30.209   9.166  0.00  0.00    +0.142 HD
ENDBRANCH  10  11
BRANCH  10  13
ATOM     13  C   TYR A   1      54.011  28.343  10.367  0.00  0.00    +0.224 C 
ATOM     14  O   TYR A   1      54.753  28.470  11.340  0.00  0.00    -0.287 OA
ENDBRANCH  10  13
ENDBRANCH   9  10
ENDBRANCH   1   9
TORSDOF 5
REMARK  Name = ../refined-set-2016/4pg9/4pg9_pocket.pdb
REMARK  337 active torsions:
REMARK  status: ('A' for Active; 'I' for Inactive)
REMARK    1  A    between atoms: _1  and  _3
REMARK    2  A    between atoms: _3  and  _4
REMARK    3  A    between atoms: _3  and  _6
REMARK    4  A    between atoms: _6  and  _7
REMARK    5  A    between atoms: _10  and  _12
REMARK    6  A    between atoms: _12  and  _13
REMARK    7  A    between atoms: _12  and  _15
REMARK    8  A    between atoms: _15  and  _16
REMARK    9  A    between atoms: _16  and  _17
REMARK   10  A    between atoms: _17  and  _18
REMARK   11  A    between atoms: _27  and  _29
REMARK   12  A    between atoms: _29  and  _30
REMARK   13  A    between atoms: _29  and  _32
REMARK   14  A    between atoms: _32  and  _33
REMARK   15  A    between atoms: _38  and  _39
REMARK   16  A    between atoms: _41  and  _43
REMARK   17  A    between atoms: _43  and  _44
REMARK   18  A    between atoms: _43  and  _46
REMARK   19  A    between atoms: _46  and  _47
REMARK   20  A    between atoms: _53  and  _55
REMARK   21  A    between atoms: _55  and  _56
REMARK   22  A    between atoms: _55  and  _58
REMARK   23  A    between atoms: _61  and  _63
REMARK   24  A    between atoms: _63  and  _64
REMARK   25  A    between atoms: _63  and  _66
REMARK   26  A    between atoms: _66  and  _67
REMARK   27  A    between atoms: _70  and  _72
REMARK   28  A    between atoms: _72  and  _73
REMARK   29  A    between atoms: _72  and  _75
REMARK   30  A    between atoms: _75  and  _76
REMARK   31  A    between atoms: _81  and  _82
REMARK   32  A    between atoms: _84  and  _86
REMARK   33  A    between atoms: _86  and  _87
REMARK   34  A    between atoms: _86  and  _89
REMARK   35  A    between atoms: _89  and  _90
REMARK   36  A    between atoms: _90  and  _91
REMARK   37  A    between atoms: _93  and  _95
REMARK   38  A    between atoms: _95  and  _96
REMARK   39  A    between atoms: _95  and  _98
REMARK   40  A    between atoms: _98  and  _99
REMARK   41  A    between atoms: _99  and  _100
REMARK   42  A    between atoms: _103  and  _105
REMARK   43  A    between atoms: _105  and  _106
REMARK   44  A    between atoms: _105  and  _108
REMARK   45  A    between atoms: _111  and  _113
REMARK   46  A    between atoms: _113  and  _114
REMARK   47  A    between atoms: _116  and  _118
REMARK   48  A    between atoms: _118  and  _119
REMARK   49  A    between atoms: _118  and  _121
REMARK   50  A    between atoms: _124  and  _126
REMARK   51  A    between atoms: _126  and  _127
REMARK   52  A    between atoms: _126  and  _129
REMARK   53  A    between atoms: _129  and  _130
REMARK   54  A    between atoms: _136  and  _138
REMARK   55  A    between atoms: _138  and  _139
REMARK   56  A    between atoms: _138  and  _141
REMARK   57  A    between atoms: _144  and  _146
REMARK   58  A    between atoms: _146  and  _147
REMARK   59  A    between atoms: _146  and  _149
REMARK   60  A    between atoms: _149  and  _150
REMARK   61  A    between atoms: _155  and  _156
REMARK   62  A    between atoms: _158  and  _160
REMARK   63  A    between atoms: _160  and  _161
REMARK   64  A    between atoms: _160  and  _163
REMARK   65  A    between atoms: _163  and  _164
REMARK   66  A    between atoms: _164  and  _165
REMARK   67  A    between atoms: _167  and  _169
REMARK   68  A    between atoms: _169  and  _170
REMARK   69  A    between atoms: _169  and  _172
REMARK   70  A    between atoms: _172  and  _173
REMARK   71  A    between atoms: _173  and  _174
REMARK   72  A    between atoms: _177  and  _179
REMARK   73  A    between atoms: _179  and  _180
REMARK   74  A    between atoms: _179  and  _182
REMARK   75  A    between atoms: _182  and  _183
REMARK   76  A    between atoms: _183  and  _184
REMARK   77  A    between atoms: _187  and  _189
REMARK   78  A    between atoms: _189  and  _190
REMARK   79  A    between atoms: _189  and  _192
REMARK   80  A    between atoms: _192  and  _193
REMARK   81  A    between atoms: _198  and  _199
REMARK   82  A    between atoms: _201  and  _203
REMARK   83  A    between atoms: _203  and  _204
REMARK   84  A    between atoms: _203  and  _206
REMARK   85  A    between atoms: _206  and  _207
REMARK   86  A    between atoms: _207  and  _208
REMARK   87  A    between atoms: _208  and  _209
REMARK   88  A    between atoms: _218  and  _220
REMARK   89  A    between atoms: _220  and  _221
REMARK   90  A    between atoms: _220  and  _223
REMARK   91  A    between atoms: _223  and  _224
REMARK   92  A    between atoms: _224  and  _225
REMARK   93  A    between atoms: _228  and  _230
REMARK   94  A    between atoms: _230  and  _231
REMARK   95  A    between atoms: _230  and  _233
REMARK   96  A    between atoms: _233  and  _234
REMARK   97  A    between atoms: _237  and  _239
REMARK   98  A    between atoms: _239  and  _240
REMARK   99  A    between atoms: _239  and  _242
REMARK  100  A    between atoms: _242  and  _243
REMARK  101  A    between atoms: _243  and  _244
REMARK  102  A    between atoms: _249  and  _251
REMARK  103  A    between atoms: _251  and  _252
REMARK  104  A    between atoms: _251  and  _254
REMARK  105  A    between atoms: _254  and  _255
REMARK  106  A    between atoms: _255  and  _256
REMARK  107  A    between atoms: _256  and  _257
REMARK  108  A    between atoms: _257  and  _258
REMARK  109  A    between atoms: _262  and  _264
REMARK  110  A    between atoms: _264  and  _265
REMARK  111  A    between atoms: _268  and  _270
REMARK  112  A    between atoms: _270  and  _271
REMARK  113  A    between atoms: _273  and  _275
REMARK  114  A    between atoms: _275  and  _276
REMARK  115  A    between atoms: _275  and  _278
REMARK  116  A    between atoms: _278  and  _279
REMARK  117  A    between atoms: _284  and  _286
REMARK  118  A    between atoms: _286  and  _287
REMARK  119  A    between atoms: _286  and  _289
REMARK  120  A    between atoms: _289  and  _290
REMARK  121  A    between atoms: _290  and  _291
REMARK  122  A    between atoms: _294  and  _296
REMARK  123  A    between atoms: _296  and  _297
REMARK  124  A    between atoms: _296  and  _299
REMARK  125  A    between atoms: _299  and  _300
REMARK  126  A    between atoms: _300  and  _301
REMARK  127  A    between atoms: _306  and  _308
REMARK  128  A    between atoms: _308  and  _309
REMARK  129  A    between atoms: _308  and  _311
REMARK  130  A    between atoms: _311  and  _312
REMARK  131  A    between atoms: _314  and  _316
REMARK  132  A    between atoms: _316  and  _317
REMARK  133  A    between atoms: _316  and  _319
REMARK  134  A    between atoms: _319  and  _320
REMARK  135  A    between atoms: _326  and  _328
REMARK  136  A    between atoms: _328  and  _329
REMARK  137  A    between atoms: _328  and  _331
REMARK  138  A    between atoms: _334  and  _336
REMARK  139  A    between atoms: _336  and  _337
REMARK  140  A    between atoms: _336  and  _339
REMARK  141  A    between atoms: _339  and  _340
REMARK  142  A    between atoms: _343  and  _345
REMARK  143  A    between atoms: _345  and  _346
REMARK  144  A    between atoms: _345  and  _348
REMARK  145  A    between atoms: _348  and  _349
REMARK  146  A    between atoms: _352  and  _354
REMARK  147  A    between atoms: _354  and  _355
REMARK  148  A    between atoms: _354  and  _357
REMARK  149  A    between atoms: _357  and  _358
REMARK  150  A    between atoms: _361  and  _363
REMARK  151  A    between atoms: _363  and  _364
REMARK  152  A    between atoms: _363  and  _366
REMARK  153  A    between atoms: _366  and  _367
REMARK  154  A    between atoms: _370  and  _372
REMARK  155  A    between atoms: _372  and  _373
REMARK  156  A    between atoms: _372  and  _375
REMARK  157  A    between atoms: _375  and  _376
REMARK  158  A    between atoms: _381  and  _382
REMARK  159  A    between atoms: _384  and  _386
REMARK  160  A    between atoms: _386  and  _387
REMARK  161  A    between atoms: _386  and  _389
REMARK  162  A    between atoms: _389  and  _390
REMARK  163  A    between atoms: _395  and  _396
REMARK  164  A    between atoms: _398  and  _400
REMARK  165  A    between atoms: _400  and  _401
REMARK  166  A    between atoms: _400  and  _403
REMARK  167  A    between atoms: _403  and  _404
REMARK  168  A    between atoms: _407  and  _409
REMARK  169  A    between atoms: _409  and  _410
REMARK  170  A    between atoms: _409  and  _412
REMARK  171  A    between atoms: _412  and  _413
REMARK  172  A    between atoms: _416  and  _418
REMARK  173  A    between atoms: _418  and  _419
REMARK  174  A    between atoms: _418  and  _421
REMARK  175  A    between atoms: _421  and  _422
REMARK  176  A    between atoms: _422  and  _423
REMARK  177  A    between atoms: _428  and  _430
REMARK  178  A    between atoms: _430  and  _431
REMARK  179  A    between atoms: _430  and  _433
REMARK  180  A    between atoms: _436  and  _438
REMARK  181  A    between atoms: _438  and  _439
REMARK  182  A    between atoms: _438  and  _441
REMARK  183  A    between atoms: _441  and  _442
REMARK  184  A    between atoms: _445  and  _447
REMARK  185  A    between atoms: _447  and  _448
REMARK  186  A    between atoms: _447  and  _450
REMARK  187  A    between atoms: _450  and  _451
REMARK  188  A    between atoms: _453  and  _455
REMARK  189  A    between atoms: _455  and  _456
REMARK  190  A    between atoms: _458  and  _460
REMARK  191  A    between atoms: _460  and  _461
REMARK  192  A    between atoms: _460  and  _463
REMARK  193  A    between atoms: _463  and  _464
REMARK  194  A    between atoms: _464  and  _759
REMARK  195  A    between atoms: _465  and  _467
REMARK  196  A    between atoms: _467  and  _468
REMARK  197  A    between atoms: _467  and  _470
REMARK  198  A    between atoms: _470  and  _471
REMARK  199  A    between atoms: _476  and  _477
REMARK  200  A    between atoms: _479  and  _481
REMARK  201  A    between atoms: _481  and  _482
REMARK  202  A    between atoms: _481  and  _484
REMARK  203  A    between atoms: _484  and  _485
REMARK  204  A    between atoms: _485  and  _486
REMARK  205  A    between atoms: _491  and  _493
REMARK  206  A    between atoms: _493  and  _494
REMARK  207  A    between atoms: _493  and  _496
REMARK  208  A    between atoms: _496  and  _497
REMARK  209  A    between atoms: _497  and  _498
REMARK  210  A    between atoms: _503  and  _505
REMARK  211  A    between atoms: _505  and  _506
REMARK  212  A    between atoms: _505  and  _508
REMARK  213  A    between atoms: _508  and  _509
REMARK  214  A    between atoms: _514  and  _515
REMARK  215  A    between atoms: _517  and  _519
REMARK  216  A    between atoms: _519  and  _520
REMARK  217  A    between atoms: _523  and  _525
REMARK  218  A    between atoms: _525  and  _526
REMARK  219  A    between atoms: _525  and  _528
REMARK  220  A    between atoms: _528  and  _529
REMARK  221  A    between atoms: _534  and  _535
REMARK  222  A    between atoms: _537  and  _539
REMARK  223  A    between atoms: _539  and  _540
REMARK  224  A    between atoms: _539  and  _542
REMARK  225  A    between atoms: _542  and  _543
REMARK  226  A    between atoms: _548  and  _549
REMARK  227  A    between atoms: _551  and  _553
REMARK  228  A    between atoms: _553  and  _554
REMARK  229  A    between atoms: _553  and  _556
REMARK  230  A    between atoms: _556  and  _557
REMARK  231  A    between atoms: _560  and  _562
REMARK  232  A    between atoms: _562  and  _563
REMARK  233  A    between atoms: _562  and  _565
REMARK  234  A    between atoms: _565  and  _566
REMARK  235  A    between atoms: _576  and  _578
REMARK  236  A    between atoms: _578  and  _579
REMARK  237  A    between atoms: _582  and  _584
REMARK  238  A    between atoms: _584  and  _585
REMARK  239  A    between atoms: _588  and  _590
REMARK  240  A    between atoms: _590  and  _591
REMARK  241  A    between atoms: _590  and  _593
REMARK  242  A    between atoms: _593  and  _594
REMARK  243  A    between atoms: _597  and  _599
REMARK  244  A    between atoms: _599  and  _600
REMARK  245  A    between atoms: _599  and  _602
REMARK  246  A    between atoms: _602  and  _603
REMARK  247  A    between atoms: _606  and  _608
REMARK  248  A    between atoms: _608  and  _609
REMARK  249  A    between atoms: _608  and  _611
REMARK  250  A    between atoms: _611  and  _612
REMARK  251  A    between atoms: _615  and  _617
REMARK  252  A    between atoms: _617  and  _618
REMARK  253  A    between atoms: _617  and  _620
REMARK  254  A    between atoms: _620  and  _621
REMARK  255  A    between atoms: _621  and  _622
REMARK  256  A    between atoms: _622  and  _623
REMARK  257  A    between atoms: _623  and  _624
REMARK  258  A    between atoms: _628  and  _630
REMARK  259  A    between atoms: _630  and  _631
REMARK  260  A    between atoms: _630  and  _633
REMARK  261  A    between atoms: _633  and  _634
REMARK  262  A    between atoms: _639  and  _641
REMARK  263  A    between atoms: _641  and  _642
REMARK  264  A    between atoms: _641  and  _644
REMARK  265  A    between atoms: _644  and  _645
REMARK  266  A    between atoms: _645  and  _646
REMARK  267  A    between atoms: _646  and  _647
REMARK  268  A    between atoms: _647  and  _648
REMARK  269  A    between atoms: _652  and  _654
REMARK  270  A    between atoms: _654  and  _655
REMARK  271  A    between atoms: _654  and  _657
REMARK  272  A    between atoms: _657  and  _658
REMARK  273  A    between atoms: _668  and  _670
REMARK  274  A    between atoms: _670  and  _671
REMARK  275  A    between atoms: _674  and  _676
REMARK  276  A    between atoms: _676  and  _677
REMARK  277  A    between atoms: _679  and  _681
REMARK  278  A    between atoms: _681  and  _682
REMARK  279  A    between atoms: _681  and  _684
REMARK  280  A    between atoms: _684  and  _685
REMARK  281  A    between atoms: _685  and  _686
REMARK  282  A    between atoms: _689  and  _691
REMARK  283  A    between atoms: _691  and  _692
REMARK  284  A    between atoms: _695  and  _697
REMARK  285  A    between atoms: _697  and  _698
REMARK  286  A    between atoms: _697  and  _700
REMARK  287  A    between atoms: _700  and  _701
REMARK  288  A    between atoms: _701  and  _702
REMARK  289  A    between atoms: _702  and  _703
REMARK  290  A    between atoms: _712  and  _714
REMARK  291  A    between atoms: _714  and  _715
REMARK  292  A    between atoms: _714  and  _717
REMARK  293  A    between atoms: _717  and  _718
REMARK  294  A    between atoms: _721  and  _723
REMARK  295  A    between atoms: _723  and  _724
REMARK  296  A    between atoms: _723  and  _726
REMARK  297  A    between atoms: _726  and  _727
REMARK  298  A    between atoms: _732  and  _733
REMARK  299  A    between atoms: _735  and  _737
REMARK  300  A    between atoms: _737  and  _738
REMARK  301  A    between atoms: _737  and  _740
REMARK  302  A    between atoms: _740  and  _741
REMARK  303  A    between atoms: _744  and  _746
REMARK  304  A    between atoms: _746  and  _747
REMARK  305  A    between atoms: _746  and  _749
REMARK  306  A    between atoms: _749  and  _750
REMARK  307  A    between atoms: _753  and  _755
REMARK  308  A    between atoms: _755  and  _756
REMARK  309  A    between atoms: _755  and  _758
REMARK  310  A    between atoms: _758  and  _759
REMARK  311  A    between atoms: _760  and  _762
REMARK  312  A    between atoms: _762  and  _763
REMARK  313  A    between atoms: _762  and  _765
REMARK  314  A    between atoms: _768  and  _770
REMARK  315  A    between atoms: _770  and  _771
REMARK  316  A    between atoms: _770  and  _773
REMARK  317  A    between atoms: _773  and  _774
REMARK  318  A    between atoms: _774  and  _775
REMARK  319  A    between atoms: _778  and  _780
REMARK  320  A    between atoms: _780  and  _781
REMARK  321  A    between atoms: _780  and  _783
REMARK  322  A    between atoms: _783  and  _784
REMARK  323  A    between atoms: _794  and  _796
REMARK  324  A    between atoms: _796  and  _797
REMARK  325  A    between atoms: _796  and  _799
REMARK  326  A    between atoms: _799  and  _800
REMARK  327  A    between atoms: _803  and  _805
REMARK  328  A    between atoms: _805  and  _806
REMARK  329  A    between atoms: _805  and  _808
REMARK  330  A    between atoms: _808  and  _809
REMARK  331  A    between atoms: _809  and  _810
REMARK  332  A    between atoms: _810  and  _811
REMARK  333  A    between atoms: _820  and  _822
REMARK  334  A    between atoms: _822  and  _823
REMARK  335  A    between atoms: _822  and  _825
REMARK  336  A    between atoms: _825  and  _826
REMARK  337  A    between atoms: _831  and  _832
REMARK                            x       y       z     vdW  Elec       q    Type
REMARK                         _______ _______ _______ _____ _____    ______ ____
ROOT
ATOM      1  CA  MET A   1      52.953  18.977  14.956  0.00  0.00    +0.134 C 
ENDROOT
BRANCH   1   2
ATOM      2  N   MET A   1      51.824  18.224  15.529  0.00  0.00    -0.239 NA
ATOM      3  H   MET A   1      50.852  18.560  15.374  0.00  0.00    +0.142 HD
ENDBRANCH   1   2
BRANCH   1   4
ATOM      4  C   MET A   1      53.801  19.724  15.993  0.00  0.00    +0.224 C 
ATOM      5  O   MET A   1      54.814  20.318  15.641  0.00  0.00    -0.287 OA
ENDBRANCH   1   4
BRANCH   1   6
ATOM      6  CB  MET A   1      52.476  19.944  13.866  0.00  0.00    +0.037 C 
BRANCH   6   7
ATOM      7  CG  MET A   1      52.204  19.274  12.529  0.00  0.00    +0.059 C 
BRANCH   7   8
ATOM      8  SD  MET A   1      53.646  18.414  11.871  0.00  0.00    -0.139 S 
ATOM      9  CE  MET A   1      54.670  19.772  11.321  0.00  0.00    +0.069 C 
ENDBRANCH   7   8
ENDBRANCH   6   7
ENDBRANCH   1   6
TORSDOF 5
REMARK  Name = ../refined-set-2016/4pg9/4pg9_pocket.pdb
REMARK  337 active torsions:
REMARK  status: ('A' for Active; 'I' for Inactive)
REMARK    1  A    between atoms: _1  and  _3
REMARK    2  A    between atoms: _3  and  _4
REMARK    3  A    between atoms: _3  and  _6
REMARK    4  A    between atoms: _6  and  _7
REMARK    5  A    between atoms: _10  and  _12
REMARK    6  A    between atoms: _12  and  _13
REMARK    7  A    between atoms: _12  and  _15
REMARK    8  A    between atoms: _15  and  _16
REMARK    9  A    between atoms: _16  and  _17
REMARK   10  A    between atoms: _17  and  _18
REMARK   11  A    between atoms: _27  and  _29
REMARK   12  A    between atoms: _29  and  _30
REMARK   13  A    between atoms: _29  and  _32
REMARK   14  A    between atoms: _32  and  _33
REMARK   15  A    between atoms: _38  and  _39
REMARK   16  A    between atoms: _41  and  _43
REMARK   17  A    between atoms: _43  and  _44
REMARK   18  A    between atoms: _43  and  _46
REMARK   19  A    between atoms: _46  and  _47
REMARK   20  A    between atoms: _53  and  _55
REMARK   21  A    between atoms: _55  and  _56
REMARK   22  A    between atoms: _55  and  _58
REMARK   23  A    between atoms: _61  and  _63
REMARK   24  A    between atoms: _63  and  _64
REMARK   25  A    between atoms: _63  and  _66
REMARK   26  A    between atoms: _66  and  _67
REMARK   27  A    between atoms: _70  and  _72
REMARK   28  A    between atoms: _72  and  _73
REMARK   29  A    between atoms: _72  and  _75
REMARK   30  A    between atoms: _75  and  _76
REMARK   31  A    between atoms: _81  and  _82
REMARK   32  A    between atoms: _84  and  _86
REMARK   33  A    between atoms: _86  and  _87
REMARK   34  A    between atoms: _86  and  _89
REMARK   35  A    between atoms: _89  and  _90
REMARK   36  A    between atoms: _90  and  _91
REMARK   37  A    between atoms: _93  and  _95
REMARK   38  A    between atoms: _95  and  _96
REMARK   39  A    between atoms: _95  and  _98
REMARK   40  A    between atoms: _98  and  _99
REMARK   41  A    between atoms: _99  and  _100
REMARK   42  A    between atoms: _103  and  _105
REMARK   43  A    between atoms: _105  and  _106
REMARK   44  A    between atoms: _105  and  _108
REMARK   45  A    between atoms: _111  and  _113
REMARK   46  A    between atoms: _113  and  _114
REMARK   47  A    between atoms: _116  and  _118
REMARK   48  A    between atoms: _118  and  _119
REMARK   49  A    between atoms: _118  and  _121
REMARK   50  A    between atoms: _124  and  _126
REMARK   51  A    between atoms: _126  and  _127
REMARK   52  A    between atoms: _126  and  _129
REMARK   53  A    between atoms: _129  and  _130
REMARK   54  A    between atoms: _136  and  _138
REMARK   55  A    between atoms: _138  and  _139
REMARK   56  A    between atoms: _138  and  _141
REMARK   57  A    between atoms: _144  and  _146
REMARK   58  A    between atoms: _146  and  _147
REMARK   59  A    between atoms: _146  and  _149
REMARK   60  A    between atoms: _149  and  _150
REMARK   61  A    between atoms: _155  and  _156
REMARK   62  A    between atoms: _158  and  _160
REMARK   63  A    between atoms: _160  and  _161
REMARK   64  A    between atoms: _160  and  _163
REMARK   65  A    between atoms: _163  and  _164
REMARK   66  A    between atoms: _164  and  _165
REMARK   67  A    between atoms: _167  and  _169
REMARK   68  A    between atoms: _169  and  _170
REMARK   69  A    between atoms: _169  and  _172
REMARK   70  A    between atoms: _172  and  _173
REMARK   71  A    between atoms: _173  and  _174
REMARK   72  A    between atoms: _177  and  _179
REMARK   73  A    between atoms: _179  and  _180
REMARK   74  A    between atoms: _179  and  _182
REMARK   75  A    between atoms: _182  and  _183
REMARK   76  A    between atoms: _183  and  _184
REMARK   77  A    between atoms: _187  and  _189
REMARK   78  A    between atoms: _189  and  _190
REMARK   79  A    between atoms: _189  and  _192
REMARK   80  A    between atoms: _192  and  _193
REMARK   81  A    between atoms: _198  and  _199
REMARK   82  A    between atoms: _201  and  _203
REMARK   83  A    between atoms: _203  and  _204
REMARK   84  A    between atoms: _203  and  _206
REMARK   85  A    between atoms: _206  and  _207
REMARK   86  A    between atoms: _207  and  _208
REMARK   87  A    between atoms: _208  and  _209
REMARK   88  A    between atoms: _218  and  _220
REMARK   89  A    between atoms: _220  and  _221
REMARK   90  A    between atoms: _220  and  _223
REMARK   91  A    between atoms: _223  and  _224
REMARK   92  A    between atoms: _224  and  _225
REMARK   93  A    between atoms: _228  and  _230
REMARK   94  A    between atoms: _230  and  _231
REMARK   95  A    between atoms: _230  and  _233
REMARK   96  A    between atoms: _233  and  _234
REMARK   97  A    between atoms: _237  and  _239
REMARK   98  A    between atoms: _239  and  _240
REMARK   99  A    between atoms: _239  and  _242
REMARK  100  A    between atoms: _242  and  _243
REMARK  101  A    between atoms: _243  and  _244
REMARK  102  A    between atoms: _249  and  _251
REMARK  103  A    between atoms: _251  and  _252
REMARK  104  A    between atoms: _251  and  _254
REMARK  105  A    between atoms: _254  and  _255
REMARK  106  A    between atoms: _255  and  _256
REMARK  107  A    between atoms: _256  and  _257
REMARK  108  A    between atoms: _257  and  _258
REMARK  109  A    between atoms: _262  and  _264
REMARK  110  A    between atoms: _264  and  _265
REMARK  111  A    between atoms: _268  and  _270
REMARK  112  A    between atoms: _270  and  _271
REMARK  113  A    between atoms: _273  and  _275
REMARK  114  A    between atoms: _275  and  _276
REMARK  115  A    between atoms: _275  and  _278
REMARK  116  A    between atoms: _278  and  _279
REMARK  117  A    between atoms: _284  and  _286
REMARK  118  A    between atoms: _286  and  _287
REMARK  119  A    between atoms: _286  and  _289
REMARK  120  A    between atoms: _289  and  _290
REMARK  121  A    between atoms: _290  and  _291
REMARK  122  A    between atoms: _294  and  _296
REMARK  123  A    between atoms: _296  and  _297
REMARK  124  A    between atoms: _296  and  _299
REMARK  125  A    between atoms: _299  and  _300
REMARK  126  A    between atoms: _300  and  _301
REMARK  127  A    between atoms: _306  and  _308
REMARK  128  A    between atoms: _308  and  _309
REMARK  129  A    between atoms: _308  and  _311
REMARK  130  A    between atoms: _311  and  _312
REMARK  131  A    between atoms: _314  and  _316
REMARK  132  A    between atoms: _316  and  _317
REMARK  133  A    between atoms: _316  and  _319
REMARK  134  A    between atoms: _319  and  _320
REMARK  135  A    between atoms: _326  and  _328
REMARK  136  A    between atoms: _328  and  _329
REMARK  137  A    between atoms: _328  and  _331
REMARK  138  A    between atoms: _334  and  _336
REMARK  139  A    between atoms: _336  and  _337
REMARK  140  A    between atoms: _336  and  _339
REMARK  141  A    between atoms: _339  and  _340
REMARK  142  A    between atoms: _343  and  _345
REMARK  143  A    between atoms: _345  and  _346
REMARK  144  A    between atoms: _345  and  _348
REMARK  145  A    between atoms: _348  and  _349
REMARK  146  A    between atoms: _352  and  _354
REMARK  147  A    between atoms: _354  and  _355
REMARK  148  A    between atoms: _354  and  _357
REMARK  149  A    between atoms: _357  and  _358
REMARK  150  A    between atoms: _361  and  _363
REMARK  151  A    between atoms: _363  and  _364
REMARK  152  A    between atoms: _363  and  _366
REMARK  153  A    between atoms: _366  and  _367
REMARK  154  A    between atoms: _370  and  _372
REMARK  155  A    between atoms: _372  and  _373
REMARK  156  A    between atoms: _372  and  _375
REMARK  157  A    between atoms: _375  and  _376
REMARK  158  A    between atoms: _381  and  _382
REMARK  159  A    between atoms: _384  and  _386
REMARK  160  A    between atoms: _386  and  _387
REMARK  161  A    between atoms: _386  and  _389
REMARK  162  A    between atoms: _389  and  _390
REMARK  163  A    between atoms: _395  and  _396
REMARK  164  A    between atoms: _398  and  _400
REMARK  165  A    between atoms: _400  and  _401
REMARK  166  A    between atoms: _400  and  _403
REMARK  167  A    between atoms: _403  and  _404
REMARK  168  A    between atoms: _407  and  _409
REMARK  169  A    between atoms: _409  and  _410
REMARK  170  A    between atoms: _409  and  _412
REMARK  171  A    between atoms: _412  and  _413
REMARK  172  A    between atoms: _416  and  _418
REMARK  173  A    between atoms: _418  and  _419
REMARK  174  A    between atoms: _418  and  _421
REMARK  175  A    between atoms: _421  and  _422
REMARK  176  A    between atoms: _422  and  _423
REMARK  177  A    between atoms: _428  and  _430
REMARK  178  A    between atoms: _430  and  _431
REMARK  179  A    between atoms: _430  and  _433
REMARK  180  A    between atoms: _436  and  _438
REMARK  181  A    between atoms: _438  and  _439
REMARK  182  A    between atoms: _438  and  _441
REMARK  183  A    between atoms: _441  and  _442
REMARK  184  A    between atoms: _445  and  _447
REMARK  185  A    between atoms: _447  and  _448
REMARK  186  A    between atoms: _447  and  _450
REMARK  187  A    between atoms: _450  and  _451
REMARK  188  A    between atoms: _453  and  _455
REMARK  189  A    between atoms: _455  and  _456
REMARK  190  A    between atoms: _458  and  _460
REMARK  191  A    between atoms: _460  and  _461
REMARK  192  A    between atoms: _460  and  _463
REMARK  193  A    between atoms: _463  and  _464
REMARK  194  A    between atoms: _464  and  _759
REMARK  195  A    between atoms: _465  and  _467
REMARK  196  A    between atoms: _467  and  _468
REMARK  197  A    between atoms: _467  and  _470
REMARK  198  A    between atoms: _470  and  _471
REMARK  199  A    between atoms: _476  and  _477
REMARK  200  A    between atoms: _479  and  _481
REMARK  201  A    between atoms: _481  and  _482
REMARK  202  A    between atoms: _481  and  _484
REMARK  203  A    between atoms: _484  and  _485
REMARK  204  A    between atoms: _485  and  _486
REMARK  205  A    between atoms: _491  and  _493
REMARK  206  A    between atoms: _493  and  _494
REMARK  207  A    between atoms: _493  and  _496
REMARK  208  A    between atoms: _496  and  _497
REMARK  209  A    between atoms: _497  and  _498
REMARK  210  A    between atoms: _503  and  _505
REMARK  211  A    between atoms: _505  and  _506
REMARK  212  A    between atoms: _505  and  _508
REMARK  213  A    between atoms: _508  and  _509
REMARK  214  A    between atoms: _514  and  _515
REMARK  215  A    between atoms: _517  and  _519
REMARK  216  A    between atoms: _519  and  _520
REMARK  217  A    between atoms: _523  and  _525
REMARK  218  A    between atoms: _525  and  _526
REMARK  219  A    between atoms: _525  and  _528
REMARK  220  A    between atoms: _528  and  _529
REMARK  221  A    between atoms: _534  and  _535
REMARK  222  A    between atoms: _537  and  _539
REMARK  223  A    between atoms: _539  and  _540
REMARK  224  A    between atoms: _539  and  _542
REMARK  225  A    between atoms: _542  and  _543
REMARK  226  A    between atoms: _548  and  _549
REMARK  227  A    between atoms: _551  and  _553
REMARK  228  A    between atoms: _553  and  _554
REMARK  229  A    between atoms: _553  and  _556
REMARK  230  A    between atoms: _556  and  _557
REMARK  231  A    between atoms: _560  and  _562
REMARK  232  A    between atoms: _562  and  _563
REMARK  233  A    between atoms: _562  and  _565
REMARK  234  A    between atoms: _565  and  _566
REMARK  235  A    between atoms: _576  and  _578
REMARK  236  A    between atoms: _578  and  _579
REMARK  237  A    between atoms: _582  and  _584
REMARK  238  A    between atoms: _584  and  _585
REMARK  239  A    between atoms: _588  and  _590
REMARK  240  A    between atoms: _590  and  _591
REMARK  241  A    between atoms: _590  and  _593
REMARK  242  A    between atoms: _593  and  _594
REMARK  243  A    between atoms: _597  and  _599
REMARK  244  A    between atoms: _599  and  _600
REMARK  245  A    between atoms: _599  and  _602
REMARK  246  A    between atoms: _602  and  _603
REMARK  247  A    between atoms: _606  and  _608
REMARK  248  A    between atoms: _608  and  _609
REMARK  249  A    between atoms: _608  and  _611
REMARK  250  A    between atoms: _611  and  _612
REMARK  251  A    between atoms: _615  and  _617
REMARK  252  A    between atoms: _617  and  _618
REMARK  253  A    between atoms: _617  and  _620
REMARK  254  A    between atoms: _620  and  _621
REMARK  255  A    between atoms: _621  and  _622
REMARK  256  A    between atoms: _622  and  _623
REMARK  257  A    between atoms: _623  and  _624
REMARK  258  A    between atoms: _628  and  _630
REMARK  259  A    between atoms: _630  and  _631
REMARK  260  A    between atoms: _630  and  _633
REMARK  261  A    between atoms: _633  and  _634
REMARK  262  A    between atoms: _639  and  _641
REMARK  263  A    between atoms: _641  and  _642
REMARK  264  A    between atoms: _641  and  _644
REMARK  265  A    between atoms: _644  and  _645
REMARK  266  A    between atoms: _645  and  _646
REMARK  267  A    between atoms: _646  and  _647
REMARK  268  A    between atoms: _647  and  _648
REMARK  269  A    between atoms: _652  and  _654
REMARK  270  A    between atoms: _654  and  _655
REMARK  271  A    between atoms: _654  and  _657
REMARK  272  A    between atoms: _657  and  _658
REMARK  273  A    between atoms: _668  and  _670
REMARK  274  A    between atoms: _670  and  _671
REMARK  275  A    between atoms: _674  and  _676
REMARK  276  A    between atoms: _676  and  _677
REMARK  277  A    between atoms: _679  and  _681
REMARK  278  A    between atoms: _681  and  _682
REMARK  279  A    between atoms: _681  and  _684
REMARK  280  A    between atoms: _684  and  _685
REMARK  281  A    between atoms: _685  and  _686
REMARK  282  A    between atoms: _689  and  _691
REMARK  283  A    between atoms: _691  and  _692
REMARK  284  A    between atoms: _695  and  _697
REMARK  285  A    between atoms: _697  and  _698
REMARK  286  A    between atoms: _697  and  _700
REMARK  287  A    between atoms: _700  and  _701
REMARK  288  A    between atoms: _701  and  _702
REMARK  289  A    between atoms: _702  and  _703
REMARK  290  A    between atoms: _712  and  _714
REMARK  291  A    between atoms: _714  and  _715
REMARK  292  A    between atoms: _714  and  _717
REMARK  293  A    between atoms: _717  and  _718
REMARK  294  A    between atoms: _721  and  _723
REMARK  295  A    between atoms: _723  and  _724
REMARK  296  A    between atoms: _723  and  _726
REMARK  297  A    between atoms: _726  and  _727
REMARK  298  A    between atoms: _732  and  _733
REMARK  299  A    between atoms: _735  and  _737
REMARK  300  A    between atoms: _737  and  _738
REMARK  301  A    between atoms: _737  and  _740
REMARK  302  A    between atoms: _740  and  _741
REMARK  303  A    between atoms: _744  and  _746
REMARK  304  A    between atoms: _746  and  _747
REMARK  305  A    between atoms: _746  and  _749
REMARK  306  A    between atoms: _749  and  _750
REMARK  307  A    between atoms: _753  and  _755
REMARK  308  A    between atoms: _755  and  _756
REMARK  309  A    between atoms: _755  and  _758
REMARK  310  A    between atoms: _758  and  _759
REMARK  311  A    between atoms: _760  and  _762
REMARK  312  A    between atoms: _762  and  _763
REMARK  313  A    between atoms: _762  and  _765
REMARK  314  A    between atoms: _768  and  _770
REMARK  315  A    between atoms: _770  and  _771
REMARK  316  A    between atoms: _770  and  _773
REMARK  317  A    between atoms: _773  and  _774
REMARK  318  A    between atoms: _774  and  _775
REMARK  319  A    between atoms: _778  and  _780
REMARK  320  A    between atoms: _780  and  _781
REMARK  321  A    between atoms: _780  and  _783
REMARK  322  A    between atoms: _783  and  _784
REMARK  323  A    between atoms: _794  and  _796
REMARK  324  A    between atoms: _796  and  _797
REMARK  325  A    between atoms: _796  and  _799
REMARK  326  A    between atoms: _799  and  _800
REMARK  327  A    between atoms: _803  and  _805
REMARK  328  A    between atoms: _805  and  _806
REMARK  329  A    between atoms: _805  and  _808
REMARK  330  A    between atoms: _808  and  _809
REMARK  331  A    between atoms: _809  and  _810
REMARK  332  A    between atoms: _810  and  _811
REMARK  333  A    between atoms: _820  and  _822
REMARK  334  A    between atoms: _822  and  _823
REMARK  335  A    between atoms: _822  and  _825
REMARK  336  A    between atoms: _825  and  _826
REMARK  337  A    between atoms: _831  and  _832
REMARK                            x       y       z     vdW  Elec       q    Type
REMARK                         _______ _______ _______ _____ _____    ______ ____
ROOT
ATOM      1  CA  GLU A   1      58.724  19.329  15.588  0.00  0.00    +0.134 C 
ENDROOT
BRANCH   1   2
ATOM      2  N   GLU A   1      57.649  18.695  16.366  0.00  0.00    -0.239 NA
ATOM      3  H   GLU A   1      56.665  18.982  16.189  0.00  0.00    +0.142 HD
ENDBRANCH   1   2
BRANCH   1   4
ATOM      4  C   GLU A   1      59.369  20.475  16.356  0.00  0.00    +0.224 C 
ATOM      5  O   GLU A   1      58.691  21.200  17.086  0.00  0.00    -0.287 OA
ENDBRANCH   1   4
BRANCH   1   6
ATOM      6  CB  GLU A   1      58.198  19.863  14.256  0.00  0.00    +0.037 C 
BRANCH   6   7
ATOM      7  CG  GLU A   1      57.625  18.797  13.337  0.00  0.00    +0.116 C 
BRANCH   7   8
ATOM      8  CD  GLU A   1      58.648  17.757  12.914  0.00  0.00    +0.365 C 
ATOM      9  OE2 GLU A   1      59.863  18.003  13.052  0.00  0.00    -0.246 OA
ATOM     10  OE1 GLU A   1      58.237  16.681  12.433  0.00  0.00    -0.246 OA
ENDBRANCH   7   8
ENDBRANCH   6   7
ENDBRANCH   1   6
TORSDOF 5
REMARK  Name = ../refined-set-2016/4pg9/4pg9_pocket.pdb
REMARK  337 active torsions:
REMARK  status: ('A' for Active; 'I' for Inactive)
REMARK    1  A    between atoms: _1  and  _3
REMARK    2  A    between atoms: _3  and  _4
REMARK    3  A    between atoms: _3  and  _6
REMARK    4  A    between atoms: _6  and  _7
REMARK    5  A    between atoms: _10  and  _12
REMARK    6  A    between atoms: _12  and  _13
REMARK    7  A    between atoms: _12  and  _15
REMARK    8  A    between atoms: _15  and  _16
REMARK    9  A    between atoms: _16  and  _17
REMARK   10  A    between atoms: _17  and  _18
REMARK   11  A    between atoms: _27  and  _29
REMARK   12  A    between atoms: _29  and  _30
REMARK   13  A    between atoms: _29  and  _32
REMARK   14  A    between atoms: _32  and  _33
REMARK   15  A    between atoms: _38  and  _39
REMARK   16  A    between atoms: _41  and  _43
REMARK   17  A    between atoms: _43  and  _44
REMARK   18  A    between atoms: _43  and  _46
REMARK   19  A    between atoms: _46  and  _47
REMARK   20  A    between atoms: _53  and  _55
REMARK   21  A    between atoms: _55  and  _56
REMARK   22  A    between atoms: _55  and  _58
REMARK   23  A    between atoms: _61  and  _63
REMARK   24  A    between atoms: _63  and  _64
REMARK   25  A    between atoms: _63  and  _66
REMARK   26  A    between atoms: _66  and  _67
REMARK   27  A    between atoms: _70  and  _72
REMARK   28  A    between atoms: _72  and  _73
REMARK   29  A    between atoms: _72  and  _75
REMARK   30  A    between atoms: _75  and  _76
REMARK   31  A    between atoms: _81  and  _82
REMARK   32  A    between atoms: _84  and  _86
REMARK   33  A    between atoms: _86  and  _87
REMARK   34  A    between atoms: _86  and  _89
REMARK   35  A    between atoms: _89  and  _90
REMARK   36  A    between atoms: _90  and  _91
REMARK   37  A    between atoms: _93  and  _95
REMARK   38  A    between atoms: _95  and  _96
REMARK   39  A    between atoms: _95  and  _98
REMARK   40  A    between atoms: _98  and  _99
REMARK   41  A    between atoms: _99  and  _100
REMARK   42  A    between atoms: _103  and  _105
REMARK   43  A    between atoms: _105  and  _106
REMARK   44  A    between atoms: _105  and  _108
REMARK   45  A    between atoms: _111  and  _113
REMARK   46  A    between atoms: _113  and  _114
REMARK   47  A    between atoms: _116  and  _118
REMARK   48  A    between atoms: _118  and  _119
REMARK   49  A    between atoms: _118  and  _121
REMARK   50  A    between atoms: _124  and  _126
REMARK   51  A    between atoms: _126  and  _127
REMARK   52  A    between atoms: _126  and  _129
REMARK   53  A    between atoms: _129  and  _130
REMARK   54  A    between atoms: _136  and  _138
REMARK   55  A    between atoms: _138  and  _139
REMARK   56  A    between atoms: _138  and  _141
REMARK   57  A    between atoms: _144  and  _146
REMARK   58  A    between atoms: _146  and  _147
REMARK   59  A    between atoms: _146  and  _149
REMARK   60  A    between atoms: _149  and  _150
REMARK   61  A    between atoms: _155  and  _156
REMARK   62  A    between atoms: _158  and  _160
REMARK   63  A    between atoms: _160  and  _161
REMARK   64  A    between atoms: _160  and  _163
REMARK   65  A    between atoms: _163  and  _164
REMARK   66  A    between atoms: _164  and  _165
REMARK   67  A    between atoms: _167  and  _169
REMARK   68  A    between atoms: _169  and  _170
REMARK   69  A    between atoms: _169  and  _172
REMARK   70  A    between atoms: _172  and  _173
REMARK   71  A    between atoms: _173  and  _174
REMARK   72  A    between atoms: _177  and  _179
REMARK   73  A    between atoms: _179  and  _180
REMARK   74  A    between atoms: _179  and  _182
REMARK   75  A    between atoms: _182  and  _183
REMARK   76  A    between atoms: _183  and  _184
REMARK   77  A    between atoms: _187  and  _189
REMARK   78  A    between atoms: _189  and  _190
REMARK   79  A    between atoms: _189  and  _192
REMARK   80  A    between atoms: _192  and  _193
REMARK   81  A    between atoms: _198  and  _199
REMARK   82  A    between atoms: _201  and  _203
REMARK   83  A    between atoms: _203  and  _204
REMARK   84  A    between atoms: _203  and  _206
REMARK   85  A    between atoms: _206  and  _207
REMARK   86  A    between atoms: _207  and  _208
REMARK   87  A    between atoms: _208  and  _209
REMARK   88  A    between atoms: _218  and  _220
REMARK   89  A    between atoms: _220  and  _221
REMARK   90  A    between atoms: _220  and  _223
REMARK   91  A    between atoms: _223  and  _224
REMARK   92  A    between atoms: _224  and  _225
REMARK   93  A    between atoms: _228  and  _230
REMARK   94  A    between atoms: _230  and  _231
REMARK   95  A    between atoms: _230  and  _233
REMARK   96  A    between atoms: _233  and  _234
REMARK   97  A    between atoms: _237  and  _239
REMARK   98  A    between atoms: _239  and  _240
REMARK   99  A    between atoms: _239  and  _242
REMARK  100  A    between atoms: _242  and  _243
REMARK  101  A    between atoms: _243  and  _244
REMARK  102  A    between atoms: _249  and  _251
REMARK  103  A    between atoms: _251  and  _252
REMARK  104  A    between atoms: _251  and  _254
REMARK  105  A    between atoms: _254  and  _255
REMARK  106  A    between atoms: _255  and  _256
REMARK  107  A    between atoms: _256  and  _257
REMARK  108  A    between atoms: _257  and  _258
REMARK  109  A    between atoms: _262  and  _264
REMARK  110  A    between atoms: _264  and  _265
REMARK  111  A    between atoms: _268  and  _270
REMARK  112  A    between atoms: _270  and  _271
REMARK  113  A    between atoms: _273  and  _275
REMARK  114  A    between atoms: _275  and  _276
REMARK  115  A    between atoms: _275  and  _278
REMARK  116  A    between atoms: _278  and  _279
REMARK  117  A    between atoms: _284  and  _286
REMARK  118  A    between atoms: _286  and  _287
REMARK  119  A    between atoms: _286  and  _289
REMARK  120  A    between atoms: _289  and  _290
REMARK  121  A    between atoms: _290  and  _291
REMARK  122  A    between atoms: _294  and  _296
REMARK  123  A    between atoms: _296  and  _297
REMARK  124  A    between atoms: _296  and  _299
REMARK  125  A    between atoms: _299  and  _300
REMARK  126  A    between atoms: _300  and  _301
REMARK  127  A    between atoms: _306  and  _308
REMARK  128  A    between atoms: _308  and  _309
REMARK  129  A    between atoms: _308  and  _311
REMARK  130  A    between atoms: _311  and  _312
REMARK  131  A    between atoms: _314  and  _316
REMARK  132  A    between atoms: _316  and  _317
REMARK  133  A    between atoms: _316  and  _319
REMARK  134  A    between atoms: _319  and  _320
REMARK  135  A    between atoms: _326  and  _328
REMARK  136  A    between atoms: _328  and  _329
REMARK  137  A    between atoms: _328  and  _331
REMARK  138  A    between atoms: _334  and  _336
REMARK  139  A    between atoms: _336  and  _337
REMARK  140  A    between atoms: _336  and  _339
REMARK  141  A    between atoms: _339  and  _340
REMARK  142  A    between atoms: _343  and  _345
REMARK  143  A    between atoms: _345  and  _346
REMARK  144  A    between atoms: _345  and  _348
REMARK  145  A    between atoms: _348  and  _349
REMARK  146  A    between atoms: _352  and  _354
REMARK  147  A    between atoms: _354  and  _355
REMARK  148  A    between atoms: _354  and  _357
REMARK  149  A    between atoms: _357  and  _358
REMARK  150  A    between atoms: _361  and  _363
REMARK  151  A    between atoms: _363  and  _364
REMARK  152  A    between atoms: _363  and  _366
REMARK  153  A    between atoms: _366  and  _367
REMARK  154  A    between atoms: _370  and  _372
REMARK  155  A    between atoms: _372  and  _373
REMARK  156  A    between atoms: _372  and  _375
REMARK  157  A    between atoms: _375  and  _376
REMARK  158  A    between atoms: _381  and  _382
REMARK  159  A    between atoms: _384  and  _386
REMARK  160  A    between atoms: _386  and  _387
REMARK  161  A    between atoms: _386  and  _389
REMARK  162  A    between atoms: _389  and  _390
REMARK  163  A    between atoms: _395  and  _396
REMARK  164  A    between atoms: _398  and  _400
REMARK  165  A    between atoms: _400  and  _401
REMARK  166  A    between atoms: _400  and  _403
REMARK  167  A    between atoms: _403  and  _404
REMARK  168  A    between atoms: _407  and  _409
REMARK  169  A    between atoms: _409  and  _410
REMARK  170  A    between atoms: _409  and  _412
REMARK  171  A    between atoms: _412  and  _413
REMARK  172  A    between atoms: _416  and  _418
REMARK  173  A    between atoms: _418  and  _419
REMARK  174  A    between atoms: _418  and  _421
REMARK  175  A    between atoms: _421  and  _422
REMARK  176  A    between atoms: _422  and  _423
REMARK  177  A    between atoms: _428  and  _430
REMARK  178  A    between atoms: _430  and  _431
REMARK  179  A    between atoms: _430  and  _433
REMARK  180  A    between atoms: _436  and  _438
REMARK  181  A    between atoms: _438  and  _439
REMARK  182  A    between atoms: _438  and  _441
REMARK  183  A    between atoms: _441  and  _442
REMARK  184  A    between atoms: _445  and  _447
REMARK  185  A    between atoms: _447  and  _448
REMARK  186  A    between atoms: _447  and  _450
REMARK  187  A    between atoms: _450  and  _451
REMARK  188  A    between atoms: _453  and  _455
REMARK  189  A    between atoms: _455  and  _456
REMARK  190  A    between atoms: _458  and  _460
REMARK  191  A    between atoms: _460  and  _461
REMARK  192  A    between atoms: _460  and  _463
REMARK  193  A    between atoms: _463  and  _464
REMARK  194  A    between atoms: _464  and  _759
REMARK  195  A    between atoms: _465  and  _467
REMARK  196  A    between atoms: _467  and  _468
REMARK  197  A    between atoms: _467  and  _470
REMARK  198  A    between atoms: _470  and  _471
REMARK  199  A    between atoms: _476  and  _477
REMARK  200  A    between atoms: _479  and  _481
REMARK  201  A    between atoms: _481  and  _482
REMARK  202  A    between atoms: _481  and  _484
REMARK  203  A    between atoms: _484  and  _485
REMARK  204  A    between atoms: _485  and  _486
REMARK  205  A    between atoms: _491  and  _493
REMARK  206  A    between atoms: _493  and  _494
REMARK  207  A    between atoms: _493  and  _496
REMARK  208  A    between atoms: _496  and  _497
REMARK  209  A    between atoms: _497  and  _498
REMARK  210  A    between atoms: _503  and  _505
REMARK  211  A    between atoms: _505  and  _506
REMARK  212  A    between atoms: _505  and  _508
REMARK  213  A    between atoms: _508  and  _509
REMARK  214  A    between atoms: _514  and  _515
REMARK  215  A    between atoms: _517  and  _519
REMARK  216  A    between atoms: _519  and  _520
REMARK  217  A    between atoms: _523  and  _525
REMARK  218  A    between atoms: _525  and  _526
REMARK  219  A    between atoms: _525  and  _528
REMARK  220  A    between atoms: _528  and  _529
REMARK  221  A    between atoms: _534  and  _535
REMARK  222  A    between atoms: _537  and  _539
REMARK  223  A    between atoms: _539  and  _540
REMARK  224  A    between atoms: _539  and  _542
REMARK  225  A    between atoms: _542  and  _543
REMARK  226  A    between atoms: _548  and  _549
REMARK  227  A    between atoms: _551  and  _553
REMARK  228  A    between atoms: _553  and  _554
REMARK  229  A    between atoms: _553  and  _556
REMARK  230  A    between atoms: _556  and  _557
REMARK  231  A    between atoms: _560  and  _562
REMARK  232  A    between atoms: _562  and  _563
REMARK  233  A    between atoms: _562  and  _565
REMARK  234  A    between atoms: _565  and  _566
REMARK  235  A    between atoms: _576  and  _578
REMARK  236  A    between atoms: _578  and  _579
REMARK  237  A    between atoms: _582  and  _584
REMARK  238  A    between atoms: _584  and  _585
REMARK  239  A    between atoms: _588  and  _590
REMARK  240  A    between atoms: _590  and  _591
REMARK  241  A    between atoms: _590  and  _593
REMARK  242  A    between atoms: _593  and  _594
REMARK  243  A    between atoms: _597  and  _599
REMARK  244  A    between atoms: _599  and  _600
REMARK  245  A    between atoms: _599  and  _602
REMARK  246  A    between atoms: _602  and  _603
REMARK  247  A    between atoms: _606  and  _608
REMARK  248  A    between atoms: _608  and  _609
REMARK  249  A    between atoms: _608  and  _611
REMARK  250  A    between atoms: _611  and  _612
REMARK  251  A    between atoms: _615  and  _617
REMARK  252  A    between atoms: _617  and  _618
REMARK  253  A    between atoms: _617  and  _620
REMARK  254  A    between atoms: _620  and  _621
REMARK  255  A    between atoms: _621  and  _622
REMARK  256  A    between atoms: _622  and  _623
REMARK  257  A    between atoms: _623  and  _624
REMARK  258  A    between atoms: _628  and  _630
REMARK  259  A    between atoms: _630  and  _631
REMARK  260  A    between atoms: _630  and  _633
REMARK  261  A    between atoms: _633  and  _634
REMARK  262  A    between atoms: _639  and  _641
REMARK  263  A    between atoms: _641  and  _642
REMARK  264  A    between atoms: _641  and  _644
REMARK  265  A    between atoms: _644  and  _645
REMARK  266  A    between atoms: _645  and  _646
REMARK  267  A    between atoms: _646  and  _647
REMARK  268  A    between atoms: _647  and  _648
REMARK  269  A    between atoms: _652  and  _654
REMARK  270  A    between atoms: _654  and  _655
REMARK  271  A    between atoms: _654  and  _657
REMARK  272  A    between atoms: _657  and  _658
REMARK  273  A    between atoms: _668  and  _670
REMARK  274  A    between atoms: _670  and  _671
REMARK  275  A    between atoms: _674  and  _676
REMARK  276  A    between atoms: _676  and  _677
REMARK  277  A    between atoms: _679  and  _681
REMARK  278  A    between atoms: _681  and  _682
REMARK  279  A    between atoms: _681  and  _684
REMARK  280  A    between atoms: _684  and  _685
REMARK  281  A    between atoms: _685  and  _686
REMARK  282  A    between atoms: _689  and  _691
REMARK  283  A    between atoms: _691  and  _692
REMARK  284  A    between atoms: _695  and  _697
REMARK  285  A    between atoms: _697  and  _698
REMARK  286  A    between atoms: _697  and  _700
REMARK  287  A    between atoms: _700  and  _701
REMARK  288  A    between atoms: _701  and  _702
REMARK  289  A    between atoms: _702  and  _703
REMARK  290  A    between atoms: _712  and  _714
REMARK  291  A    between atoms: _714  and  _715
REMARK  292  A    between atoms: _714  and  _717
REMARK  293  A    between atoms: _717  and  _718
REMARK  294  A    between atoms: _721  and  _723
REMARK  295  A    between atoms: _723  and  _724
REMARK  296  A    between atoms: _723  and  _726
REMARK  297  A    between atoms: _726  and  _727
REMARK  298  A    between atoms: _732  and  _733
REMARK  299  A    between atoms: _735  and  _737
REMARK  300  A    between atoms: _737  and  _738
REMARK  301  A    between atoms: _737  and  _740
REMARK  302  A    between atoms: _740  and  _741
REMARK  303  A    between atoms: _744  and  _746
REMARK  304  A    between atoms: _746  and  _747
REMARK  305  A    between atoms: _746  and  _749
REMARK  306  A    between atoms: _749  and  _750
REMARK  307  A    between atoms: _753  and  _755
REMARK  308  A    between atoms: _755  and  _756
REMARK  309  A    between atoms: _755  and  _758
REMARK  310  A    between atoms: _758  and  _759
REMARK  311  A    between atoms: _760  and  _762
REMARK  312  A    between atoms: _762  and  _763
REMARK  313  A    between atoms: _762  and  _765
REMARK  314  A    between atoms: _768  and  _770
REMARK  315  A    between atoms: _770  and  _771
REMARK  316  A    between atoms: _770  and  _773
REMARK  317  A    between atoms: _773  and  _774
REMARK  318  A    between atoms: _774  and  _775
REMARK  319  A    between atoms: _778  and  _780
REMARK  320  A    between atoms: _780  and  _781
REMARK  321  A    between atoms: _780  and  _783
REMARK  322  A    between atoms: _783  and  _784
REMARK  323  A    between atoms: _794  and  _796
REMARK  324  A    between atoms: _796  and  _797
REMARK  325  A    between atoms: _796  and  _799
REMARK  326  A    between atoms: _799  and  _800
REMARK  327  A    between atoms: _803  and  _805
REMARK  328  A    between atoms: _805  and  _806
REMARK  329  A    between atoms: _805  and  _808
REMARK  330  A    between atoms: _808  and  _809
REMARK  331  A    between atoms: _809  and  _810
REMARK  332  A    between atoms: _810  and  _811
REMARK  333  A    between atoms: _820  and  _822
REMARK  334  A    between atoms: _822  and  _823
REMARK  335  A    between atoms: _822  and  _825
REMARK  336  A    between atoms: _825  and  _826
REMARK  337  A    between atoms: _831  and  _832
REMARK                            x       y       z     vdW  Elec       q    Type
REMARK                         _______ _______ _______ _____ _____    ______ ____
ROOT
ATOM      1  C   GLU A   1      63.422  24.348  12.110  0.00  0.00    +0.238 C 
ATOM      2  N   TYR A   2      62.507  23.413  12.350  0.00  0.00    -0.298 N 
ATOM      3  H   TYR A   2      62.505  22.930  13.271  0.00  0.00    +0.150 HD
ATOM      4  O   GLU A   1      63.514  24.929  11.026  0.00  0.00    -0.274 OA
ENDROOT
BRANCH   1   5
ATOM      5  CA  GLU A   1      64.381  24.687  13.260  0.00  0.00    +0.145 C 
BRANCH   5   6
ATOM      6  N   GLU A   1      63.730  24.647  14.572  0.00  0.00    -0.238 NA
ATOM      7  H   GLU A   1      64.053  23.956  15.279  0.00  0.00    +0.142 HD
ENDBRANCH   5   6
BRANCH   5   8
ATOM      8  CB  GLU A   1      65.617  23.775  13.218  0.00  0.00    +0.038 C 
BRANCH   8   9
ATOM      9  CG  GLU A   1      66.371  23.855  11.889  0.00  0.00    +0.116 C 
BRANCH   9  10
ATOM     10  CD  GLU A   1      67.859  23.524  11.985  0.00  0.00    +0.365 C 
ATOM     11  OE2 GLU A   1      68.525  23.987  12.938  0.00  0.00    -0.246 OA
ATOM     12  OE1 GLU A   1      68.370  22.815  11.084  0.00  0.00    -0.246 OA
ENDBRANCH   9  10
ENDBRANCH   8   9
ENDBRANCH   5   8
ENDBRANCH   1   5
BRANCH   2  13
ATOM     13  CA  TYR A   2      61.508  23.049  11.356  0.00  0.00    +0.141 C 
BRANCH  13  14
ATOM     14  C   TYR A   2      60.716  24.274  10.907  0.00  0.00    +0.227 C 
ATOM     15  O   TYR A   2      60.635  24.559   9.710  0.00  0.00    -0.286 OA
ENDBRANCH  13  14
BRANCH  13  16
ATOM     16  CB  TYR A   2      60.557  21.988  11.919  0.00  0.00    +0.054 C 
BRANCH  16  17
ATOM     17  CG  TYR A   2      59.452  21.579  10.969  0.00  0.00    -0.020 A 
ATOM     18  CD2 TYR A   2      58.262  22.301  10.900  0.00  0.00    -0.001 A 
ATOM     19  CE2 TYR A   2      57.248  21.934  10.034  0.00  0.00    +0.036 A 
ATOM     20  CZ  TYR A   2      57.411  20.825   9.225  0.00  0.00    +0.134 A 
ATOM     21  CE1 TYR A   2      58.581  20.091   9.274  0.00  0.00    +0.036 A 
ATOM     22  CD1 TYR A   2      59.594  20.471  10.141  0.00  0.00    -0.001 A 
BRANCH  20  23
ATOM     23  OH  TYR A   2      56.407  20.455   8.366  0.00  0.00    -0.506 OA
ATOM     24  HH  TYR A   2      56.684  19.647   7.865  0.00  0.00    +0.292 HD
ENDBRANCH  20  23
ENDBRANCH  16  17
ENDBRANCH  13  16
ENDBRANCH   2  13
TORSDOF 10
REMARK  Name = ../refined-set-2016/4pg9/4pg9_pocket.pdb
REMARK  337 active torsions:
REMARK  status: ('A' for Active; 'I' for Inactive)
REMARK    1  A    between atoms: _1  and  _3
REMARK    2  A    between atoms: _3  and  _4
REMARK    3  A    between atoms: _3  and  _6
REMARK    4  A    between atoms: _6  and  _7
REMARK    5  A    between atoms: _10  and  _12
REMARK    6  A    between atoms: _12  and  _13
REMARK    7  A    between atoms: _12  and  _15
REMARK    8  A    between atoms: _15  and  _16
REMARK    9  A    between atoms: _16  and  _17
REMARK   10  A    between atoms: _17  and  _18
REMARK   11  A    between atoms: _27  and  _29
REMARK   12  A    between atoms: _29  and  _30
REMARK   13  A    between atoms: _29  and  _32
REMARK   14  A    between atoms: _32  and  _33
REMARK   15  A    between atoms: _38  and  _39
REMARK   16  A    between atoms: _41  and  _43
REMARK   17  A    between atoms: _43  and  _44
REMARK   18  A    between atoms: _43  and  _46
REMARK   19  A    between atoms: _46  and  _47
REMARK   20  A    between atoms: _53  and  _55
REMARK   21  A    between atoms: _55  and  _56
REMARK   22  A    between atoms: _55  and  _58
REMARK   23  A    between atoms: _61  and  _63
REMARK   24  A    between atoms: _63  and  _64
REMARK   25  A    between atoms: _63  and  _66
REMARK   26  A    between atoms: _66  and  _67
REMARK   27  A    between atoms: _70  and  _72
REMARK   28  A    between atoms: _72  and  _73
REMARK   29  A    between atoms: _72  and  _75
REMARK   30  A    between atoms: _75  and  _76
REMARK   31  A    between atoms: _81  and  _82
REMARK   32  A    between atoms: _84  and  _86
REMARK   33  A    between atoms: _86  and  _87
REMARK   34  A    between atoms: _86  and  _89
REMARK   35  A    between atoms: _89  and  _90
REMARK   36  A    between atoms: _90  and  _91
REMARK   37  A    between atoms: _93  and  _95
REMARK   38  A    between atoms: _95  and  _96
REMARK   39  A    between atoms: _95  and  _98
REMARK   40  A    between atoms: _98  and  _99
REMARK   41  A    between atoms: _99  and  _100
REMARK   42  A    between atoms: _103  and  _105
REMARK   43  A    between atoms: _105  and  _106
REMARK   44  A    between atoms: _105  and  _108
REMARK   45  A    between atoms: _111  and  _113
REMARK   46  A    between atoms: _113  and  _114
REMARK   47  A    between atoms: _116  and  _118
REMARK   48  A    between atoms: _118  and  _119
REMARK   49  A    between atoms: _118  and  _121
REMARK   50  A    between atoms: _124  and  _126
REMARK   51  A    between atoms: _126  and  _127
REMARK   52  A    between atoms: _126  and  _129
REMARK   53  A    between atoms: _129  and  _130
REMARK   54  A    between atoms: _136  and  _138
REMARK   55  A    between atoms: _138  and  _139
REMARK   56  A    between atoms: _138  and  _141
REMARK   57  A    between atoms: _144  and  _146
REMARK   58  A    between atoms: _146  and  _147
REMARK   59  A    between atoms: _146  and  _149
REMARK   60  A    between atoms: _149  and  _150
REMARK   61  A    between atoms: _155  and  _156
REMARK   62  A    between atoms: _158  and  _160
REMARK   63  A    between atoms: _160  and  _161
REMARK   64  A    between atoms: _160  and  _163
REMARK   65  A    between atoms: _163  and  _164
REMARK   66  A    between atoms: _164  and  _165
REMARK   67  A    between atoms: _167  and  _169
REMARK   68  A    between atoms: _169  and  _170
REMARK   69  A    between atoms: _169  and  _172
REMARK   70  A    between atoms: _172  and  _173
REMARK   71  A    between atoms: _173  and  _174
REMARK   72  A    between atoms: _177  and  _179
REMARK   73  A    between atoms: _179  and  _180
REMARK   74  A    between atoms: _179  and  _182
REMARK   75  A    between atoms: _182  and  _183
REMARK   76  A    between atoms: _183  and  _184
REMARK   77  A    between atoms: _187  and  _189
REMARK   78  A    between atoms: _189  and  _190
REMARK   79  A    between atoms: _189  and  _192
REMARK   80  A    between atoms: _192  and  _193
REMARK   81  A    between atoms: _198  and  _199
REMARK   82  A    between atoms: _201  and  _203
REMARK   83  A    between atoms: _203  and  _204
REMARK   84  A    between atoms: _203  and  _206
REMARK   85  A    between atoms: _206  and  _207
REMARK   86  A    between atoms: _207  and  _208
REMARK   87  A    between atoms: _208  and  _209
REMARK   88  A    between atoms: _218  and  _220
REMARK   89  A    between atoms: _220  and  _221
REMARK   90  A    between atoms: _220  and  _223
REMARK   91  A    between atoms: _223  and  _224
REMARK   92  A    between atoms: _224  and  _225
REMARK   93  A    between atoms: _228  and  _230
REMARK   94  A    between atoms: _230  and  _231
REMARK   95  A    between atoms: _230  and  _233
REMARK   96  A    between atoms: _233  and  _234
REMARK   97  A    between atoms: _237  and  _239
REMARK   98  A    between atoms: _239  and  _240
REMARK   99  A    between atoms: _239  and  _242
REMARK  100  A    between atoms: _242  and  _243
REMARK  101  A    between atoms: _243  and  _244
REMARK  102  A    between atoms: _249  and  _251
REMARK  103  A    between atoms: _251  and  _252
REMARK  104  A    between atoms: _251  and  _254
REMARK  105  A    between atoms: _254  and  _255
REMARK  106  A    between atoms: _255  and  _256
REMARK  107  A    between atoms: _256  and  _257
REMARK  108  A    between atoms: _257  and  _258
REMARK  109  A    between atoms: _262  and  _264
REMARK  110  A    between atoms: _264  and  _265
REMARK  111  A    between atoms: _268  and  _270
REMARK  112  A    between atoms: _270  and  _271
REMARK  113  A    between atoms: _273  and  _275
REMARK  114  A    between atoms: _275  and  _276
REMARK  115  A    between atoms: _275  and  _278
REMARK  116  A    between atoms: _278  and  _279
REMARK  117  A    between atoms: _284  and  _286
REMARK  118  A    between atoms: _286  and  _287
REMARK  119  A    between atoms: _286  and  _289
REMARK  120  A    between atoms: _289  and  _290
REMARK  121  A    between atoms: _290  and  _291
REMARK  122  A    between atoms: _294  and  _296
REMARK  123  A    between atoms: _296  and  _297
REMARK  124  A    between atoms: _296  and  _299
REMARK  125  A    between atoms: _299  and  _300
REMARK  126  A    between atoms: _300  and  _301
REMARK  127  A    between atoms: _306  and  _308
REMARK  128  A    between atoms: _308  and  _309
REMARK  129  A    between atoms: _308  and  _311
REMARK  130  A    between atoms: _311  and  _312
REMARK  131  A    between atoms: _314  and  _316
REMARK  132  A    between atoms: _316  and  _317
REMARK  133  A    between atoms: _316  and  _319
REMARK  134  A    between atoms: _319  and  _320
REMARK  135  A    between atoms: _326  and  _328
REMARK  136  A    between atoms: _328  and  _329
REMARK  137  A    between atoms: _328  and  _331
REMARK  138  A    between atoms: _334  and  _336
REMARK  139  A    between atoms: _336  and  _337
REMARK  140  A    between atoms: _336  and  _339
REMARK  141  A    between atoms: _339  and  _340
REMARK  142  A    between atoms: _343  and  _345
REMARK  143  A    between atoms: _345  and  _346
REMARK  144  A    between atoms: _345  and  _348
REMARK  145  A    between atoms: _348  and  _349
REMARK  146  A    between atoms: _352  and  _354
REMARK  147  A    between atoms: _354  and  _355
REMARK  148  A    between atoms: _354  and  _357
REMARK  149  A    between atoms: _357  and  _358
REMARK  150  A    between atoms: _361  and  _363
REMARK  151  A    between atoms: _363  and  _364
REMARK  152  A    between atoms: _363  and  _366
REMARK  153  A    between atoms: _366  and  _367
REMARK  154  A    between atoms: _370  and  _372
REMARK  155  A    between atoms: _372  and  _373
REMARK  156  A    between atoms: _372  and  _375
REMARK  157  A    between atoms: _375  and  _376
REMARK  158  A    between atoms: _381  and  _382
REMARK  159  A    between atoms: _384  and  _386
REMARK  160  A    between atoms: _386  and  _387
REMARK  161  A    between atoms: _386  and  _389
REMARK  162  A    between atoms: _389  and  _390
REMARK  163  A    between atoms: _395  and  _396
REMARK  164  A    between atoms: _398  and  _400
REMARK  165  A    between atoms: _400  and  _401
REMARK  166  A    between atoms: _400  and  _403
REMARK  167  A    between atoms: _403  and  _404
REMARK  168  A    between atoms: _407  and  _409
REMARK  169  A    between atoms: _409  and  _410
REMARK  170  A    between atoms: _409  and  _412
REMARK  171  A    between atoms: _412  and  _413
REMARK  172  A    between atoms: _416  and  _418
REMARK  173  A    between atoms: _418  and  _419
REMARK  174  A    between atoms: _418  and  _421
REMARK  175  A    between atoms: _421  and  _422
REMARK  176  A    between atoms: _422  and  _423
REMARK  177  A    between atoms: _428  and  _430
REMARK  178  A    between atoms: _430  and  _431
REMARK  179  A    between atoms: _430  and  _433
REMARK  180  A    between atoms: _436  and  _438
REMARK  181  A    between atoms: _438  and  _439
REMARK  182  A    between atoms: _438  and  _441
REMARK  183  A    between atoms: _441  and  _442
REMARK  184  A    between atoms: _445  and  _447
REMARK  185  A    between atoms: _447  and  _448
REMARK  186  A    between atoms: _447  and  _450
REMARK  187  A    between atoms: _450  and  _451
REMARK  188  A    between atoms: _453  and  _455
REMARK  189  A    between atoms: _455  and  _456
REMARK  190  A    between atoms: _458  and  _460
REMARK  191  A    between atoms: _460  and  _461
REMARK  192  A    between atoms: _460  and  _463
REMARK  193  A    between atoms: _463  and  _464
REMARK  194  A    between atoms: _464  and  _759
REMARK  195  A    between atoms: _465  and  _467
REMARK  196  A    between atoms: _467  and  _468
REMARK  197  A    between atoms: _467  and  _470
REMARK  198  A    between atoms: _470  and  _471
REMARK  199  A    between atoms: _476  and  _477
REMARK  200  A    between atoms: _479  and  _481
REMARK  201  A    between atoms: _481  and  _482
REMARK  202  A    between atoms: _481  and  _484
REMARK  203  A    between atoms: _484  and  _485
REMARK  204  A    between atoms: _485  and  _486
REMARK  205  A    between atoms: _491  and  _493
REMARK  206  A    between atoms: _493  and  _494
REMARK  207  A    between atoms: _493  and  _496
REMARK  208  A    between atoms: _496  and  _497
REMARK  209  A    between atoms: _497  and  _498
REMARK  210  A    between atoms: _503  and  _505
REMARK  211  A    between atoms: _505  and  _506
REMARK  212  A    between atoms: _505  and  _508
REMARK  213  A    between atoms: _508  and  _509
REMARK  214  A    between atoms: _514  and  _515
REMARK  215  A    between atoms: _517  and  _519
REMARK  216  A    between atoms: _519  and  _520
REMARK  217  A    between atoms: _523  and  _525
REMARK  218  A    between atoms: _525  and  _526
REMARK  219  A    between atoms: _525  and  _528
REMARK  220  A    between atoms: _528  and  _529
REMARK  221  A    between atoms: _534  and  _535
REMARK  222  A    between atoms: _537  and  _539
REMARK  223  A    between atoms: _539  and  _540
REMARK  224  A    between atoms: _539  and  _542
REMARK  225  A    between atoms: _542  and  _543
REMARK  226  A    between atoms: _548  and  _549
REMARK  227  A    between atoms: _551  and  _553
REMARK  228  A    between atoms: _553  and  _554
REMARK  229  A    between atoms: _553  and  _556
REMARK  230  A    between atoms: _556  and  _557
REMARK  231  A    between atoms: _560  and  _562
REMARK  232  A    between atoms: _562  and  _563
REMARK  233  A    between atoms: _562  and  _565
REMARK  234  A    between atoms: _565  and  _566
REMARK  235  A    between atoms: _576  and  _578
REMARK  236  A    between atoms: _578  and  _579
REMARK  237  A    between atoms: _582  and  _584
REMARK  238  A    between atoms: _584  and  _585
REMARK  239  A    between atoms: _588  and  _590
REMARK  240  A    between atoms: _590  and  _591
REMARK  241  A    between atoms: _590  and  _593
REMARK  242  A    between atoms: _593  and  _594
REMARK  243  A    between atoms: _597  and  _599
REMARK  244  A    between atoms: _599  and  _600
REMARK  245  A    between atoms: _599  and  _602
REMARK  246  A    between atoms: _602  and  _603
REMARK  247  A    between atoms: _606  and  _608
REMARK  248  A    between atoms: _608  and  _609
REMARK  249  A    between atoms: _608  and  _611
REMARK  250  A    between atoms: _611  and  _612
REMARK  251  A    between atoms: _615  and  _617
REMARK  252  A    between atoms: _617  and  _618
REMARK  253  A    between atoms: _617  and  _620
REMARK  254  A    between atoms: _620  and  _621
REMARK  255  A    between atoms: _621  and  _622
REMARK  256  A    between atoms: _622  and  _623
REMARK  257  A    between atoms: _623  and  _624
REMARK  258  A    between atoms: _628  and  _630
REMARK  259  A    between atoms: _630  and  _631
REMARK  260  A    between atoms: _630  and  _633
REMARK  261  A    between atoms: _633  and  _634
REMARK  262  A    between atoms: _639  and  _641
REMARK  263  A    between atoms: _641  and  _642
REMARK  264  A    between atoms: _641  and  _644
REMARK  265  A    between atoms: _644  and  _645
REMARK  266  A    between atoms: _645  and  _646
REMARK  267  A    between atoms: _646  and  _647
REMARK  268  A    between atoms: _647  and  _648
REMARK  269  A    between atoms: _652  and  _654
REMARK  270  A    between atoms: _654  and  _655
REMARK  271  A    between atoms: _654  and  _657
REMARK  272  A    between atoms: _657  and  _658
REMARK  273  A    between atoms: _668  and  _670
REMARK  274  A    between atoms: _670  and  _671
REMARK  275  A    between atoms: _674  and  _676
REMARK  276  A    between atoms: _676  and  _677
REMARK  277  A    between atoms: _679  and  _681
REMARK  278  A    between atoms: _681  and  _682
REMARK  279  A    between atoms: _681  and  _684
REMARK  280  A    between atoms: _684  and  _685
REMARK  281  A    between atoms: _685  and  _686
REMARK  282  A    between atoms: _689  and  _691
REMARK  283  A    between atoms: _691  and  _692
REMARK  284  A    between atoms: _695  and  _697
REMARK  285  A    between atoms: _697  and  _698
REMARK  286  A    between atoms: _697  and  _700
REMARK  287  A    between atoms: _700  and  _701
REMARK  288  A    between atoms: _701  and  _702
REMARK  289  A    between atoms: _702  and  _703
REMARK  290  A    between atoms: _712  and  _714
REMARK  291  A    between atoms: _714  and  _715
REMARK  292  A    between atoms: _714  and  _717
REMARK  293  A    between atoms: _717  and  _718
REMARK  294  A    between atoms: _721  and  _723
REMARK  295  A    between atoms: _723  and  _724
REMARK  296  A    between atoms: _723  and  _726
REMARK  297  A    between atoms: _726  and  _727
REMARK  298  A    between atoms: _732  and  _733
REMARK  299  A    between atoms: _735  and  _737
REMARK  300  A    between atoms: _737  and  _738
REMARK  301  A    between atoms: _737  and  _740
REMARK  302  A    between atoms: _740  and  _741
REMARK  303  A    between atoms: _744  and  _746
REMARK  304  A    between atoms: _746  and  _747
REMARK  305  A    between atoms: _746  and  _749
REMARK  306  A    between atoms: _749  and  _750
REMARK  307  A    between atoms: _753  and  _755
REMARK  308  A    between atoms: _755  and  _756
REMARK  309  A    between atoms: _755  and  _758
REMARK  310  A    between atoms: _758  and  _759
REMARK  311  A    between atoms: _760  and  _762
REMARK  312  A    between atoms: _762  and  _763
REMARK  313  A    between atoms: _762  and  _765
REMARK  314  A    between atoms: _768  and  _770
REMARK  315  A    between atoms: _770  and  _771
REMARK  316  A    between atoms: _770  and  _773
REMARK  317  A    between atoms: _773  and  _774
REMARK  318  A    between atoms: _774  and  _775
REMARK  319  A    between atoms: _778  and  _780
REMARK  320  A    between atoms: _780  and  _781
REMARK  321  A    between atoms: _780  and  _783
REMARK  322  A    between atoms: _783  and  _784
REMARK  323  A    between atoms: _794  and  _796
REMARK  324  A    between atoms: _796  and  _797
REMARK  325  A    between atoms: _796  and  _799
REMARK  326  A    between atoms: _799  and  _800
REMARK  327  A    between atoms: _803  and  _805
REMARK  328  A    between atoms: _805  and  _806
REMARK  329  A    between atoms: _805  and  _808
REMARK  330  A    between atoms: _808  and  _809
REMARK  331  A    between atoms: _809  and  _810
REMARK  332  A    between atoms: _810  and  _811
REMARK  333  A    between atoms: _820  and  _822
REMARK  334  A    between atoms: _822  and  _823
REMARK  335  A    between atoms: _822  and  _825
REMARK  336  A    between atoms: _825  and  _826
REMARK  337  A    between atoms: _831  and  _832
REMARK                            x       y       z     vdW  Elec       q    Type
REMARK                         _______ _______ _______ _____ _____    ______ ____
ROOT
ATOM      1  CA  THR A   3      58.829  29.980   7.055  0.00  0.00    +0.176 C 
ENDROOT
BRANCH   1   2
ATOM      2  C   THR A   3      59.716  30.610   5.981  0.00  0.00    +0.243 C 
ATOM      3  N   GLN A   4      61.008  30.293   6.008  0.00  0.00    -0.297 N 
ATOM      4  H   GLN A   4      61.357  29.649   6.746  0.00  0.00    +0.150 HD
ATOM      5  O   THR A   3      59.224  31.351   5.131  0.00  0.00    -0.273 OA
BRANCH   3   6
ATOM      6  CA  GLN A   4      61.947  30.827   5.027  0.00  0.00    +0.149 C 
BRANCH   6   7
ATOM      7  C   GLN A   4      61.583  30.386   3.608  0.00  0.00    +0.241 C 
ATOM      8  N   LYS A   5      61.228  29.111   3.434  0.00  0.00    -0.297 N 
ATOM      9  H   LYS A   5      61.316  28.447   4.230  0.00  0.00    +0.150 HD
ATOM     10  O   GLN A   4      61.602  31.200   2.690  0.00  0.00    -0.273 OA
BRANCH   8  11
ATOM     11  CA  LYS A   5      60.716  28.621   2.148  0.00  0.00    +0.149 C 
BRANCH  11  12
ATOM     12  C   LYS A   5      59.485  29.393   1.677  0.00  0.00    +0.241 C 
ATOM     13  N   ALA A   6      58.514  29.556   2.568  0.00  0.00    -0.298 N 
ATOM     14  H   ALA A   6      58.641  29.188   3.533  0.00  0.00    +0.150 HD
ATOM     15  O   LYS A   5      59.401  29.801   0.520  0.00  0.00    -0.273 OA
BRANCH  13  16
ATOM     16  CA  ALA A   6      57.269  30.242   2.221  0.00  0.00    +0.137 C 
ATOM     17  CB  ALA A   6      56.307  30.239   3.400  0.00  0.00    +0.030 C 
BRANCH  16  18
ATOM     18  C   ALA A   6      57.522  31.670   1.746  0.00  0.00    +0.227 C 
ATOM     19  O   ALA A   6      56.975  32.084   0.720  0.00  0.00    -0.286 OA
ENDBRANCH  16  18
ENDBRANCH  13  16
ENDBRANCH  11  12
BRANCH  11  20
ATOM     20  CB  LYS A   5      60.310  27.152   2.228  0.00  0.00    +0.029 C 
BRANCH  20  21
ATOM     21  CG  LYS A   5      61.427  26.130   2.339  0.00  0.00    +0.000 C 
BRANCH  21  22
ATOM     22  CD  LYS A   5      60.798  24.739   2.257  0.00  0.00    -0.024 C 
BRANCH  22  23
ATOM     23  CE  LYS A   5      61.387  23.750   3.233  0.00  0.00    -0.086 C 
BRANCH  23  24
ATOM     24  NZ  LYS A   5      60.483  22.577   3.358  0.00  0.00    +0.380 N 
ATOM     25  HZ1 LYS A   5      60.891  21.897   4.031  0.00  0.00    -0.089 HD
ATOM     26  HZ2 LYS A   5      59.554  22.892   3.702  0.00  0.00    -0.089 HD
ATOM     27  HZ3 LYS A   5      60.374  22.124   2.428  0.00  0.00    -0.089 HD
ENDBRANCH  23  24
ENDBRANCH  22  23
ENDBRANCH  21  22
ENDBRANCH  20  21
ENDBRANCH  11  20
ENDBRANCH   8  11
ENDBRANCH   6   7
BRANCH   6  28
ATOM     28  CB  GLN A   4      63.384  30.428   5.366  0.00  0.00    +0.039 C 
BRANCH  28  29
ATOM     29  CG  GLN A   4      64.428  31.337   4.734  0.00  0.00    +0.087 C 
BRANCH  29  30
ATOM     30  CD  GLN A   4      65.835  30.743   4.751  0.00  0.00    +0.219 C 
ATOM     31  OE1 GLN A   4      66.303  30.236   5.783  0.00  0.00    -0.275 OA
ATOM     32  NE2 GLN A   4      66.522  30.812   3.604  0.00  0.00    -0.329 N 
ATOM     33 HE21 GLN A   4      67.489  30.432   3.553  0.00  0.00    +0.145 HD
ATOM     34 HE22 GLN A   4      66.089  31.246   2.764  0.00  0.00    +0.145 HD
ENDBRANCH  29  30
ENDBRANCH  28  29
ENDBRANCH   6  28
ENDBRANCH   3   6
ENDBRANCH   1   2
BRANCH   1  36
ATOM     35  C   GLU A   2      58.977  27.718   6.162  0.00  0.00    +0.241 C 
ATOM     36  N   THR A   3      59.105  28.552   7.186  0.00  0.00    -0.295 N 
ATOM     37  H   THR A   3      59.410  28.178   8.107  0.00  0.00    +0.150 HD
ATOM     38  O   GLU A   2      58.552  28.071   5.061  0.00  0.00    -0.273 OA
BRANCH  35  39
ATOM     39  CA  GLU A   2      59.387  26.270   6.426  0.00  0.00    +0.149 C 
BRANCH  39  41
ATOM     40  C   ARG A   1      61.787  26.688   6.718  0.00  0.00    +0.238 C 
ATOM     41  N   GLU A   2      60.639  26.208   7.198  0.00  0.00    -0.297 N 
ATOM     42  H   GLU A   2      60.628  25.778   8.145  0.00  0.00    +0.150 HD
ATOM     43  O   ARG A   1      61.886  27.201   5.601  0.00  0.00    -0.274 OA
BRANCH  40  44
ATOM     44  CA  ARG A   1      63.019  26.567   7.621  0.00  0.00    +0.145 C 
BRANCH  44  45
ATOM     45  N   ARG A   1      62.750  26.975   9.001  0.00  0.00    -0.238 NA
ATOM     46  H   ARG A   1      62.846  26.274   9.763  0.00  0.00    +0.142 HD
ENDBRANCH  44  45
BRANCH  44  47
ATOM     47  CB  ARG A   1      63.571  25.137   7.569  0.00  0.00    +0.030 C 
BRANCH  47  48
ATOM     48  CG  ARG A   1      64.100  24.747   6.195  0.00  0.00    +0.045 C 
BRANCH  48  49
ATOM     49  CD  ARG A   1      64.512  23.283   6.094  0.00  0.00    +0.174 C 
BRANCH  49  50
ATOM     50  NE  ARG A   1      65.928  23.088   6.409  0.00  0.00    -0.265 N 
ATOM     51  CZ  ARG A   1      66.412  22.706   7.591  0.00  0.00    +0.342 C 
ATOM     52  NH2 ARG A   1      65.607  22.447   8.617  0.00  0.00    -0.292 N 
ATOM     53 HH21 ARG A   1      66.007  22.150   9.530  0.00  0.00    +0.255 HD
ATOM     54 HH22 ARG A   1      64.577  22.541   8.507  0.00  0.00    +0.255 HD
ATOM     55  NH1 ARG A   1      67.723  22.579   7.752  0.00  0.00    -0.292 N 
ATOM     56 HH11 ARG A   1      68.108  22.281   8.671  0.00  0.00    +0.255 HD
ATOM     57 HH12 ARG A   1      68.366  22.777   6.959  0.00  0.00    +0.255 HD
ATOM     58  HE  ARG A   1      66.614  23.262   5.647  0.00  0.00    +0.259 HD
ENDBRANCH  49  50
ENDBRANCH  48  49
ENDBRANCH  47  48
ENDBRANCH  44  47
ENDBRANCH  40  44
ENDBRANCH  39  41
BRANCH  39  59
ATOM     59  CB  GLU A   2      58.241  25.551   7.157  0.00  0.00    +0.041 C 
BRANCH  59  60
ATOM     60  CG  GLU A   2      58.432  24.058   7.374  0.00  0.00    +0.116 C 
BRANCH  60  61
ATOM     61  CD  GLU A   2      58.604  23.293   6.081  0.00  0.00    +0.365 C 
ATOM     62  OE2 GLU A   2      59.722  22.797   5.833  0.00  0.00    -0.246 OA
ATOM     63  OE1 GLU A   2      57.628  23.174   5.316  0.00  0.00    -0.246 OA
ENDBRANCH  60  61
ENDBRANCH  59  60
ENDBRANCH  39  59
ENDBRANCH  35  39
ENDBRANCH   1  36
BRANCH   1  64
ATOM     64  CB  THR A   3      59.000  30.702   8.409  0.00  0.00    +0.137 C 
ATOM     65  CG2 THR A   3      58.882  32.213   8.260  0.00  0.00    +0.034 C 
BRANCH  64  66
ATOM     66  OG1 THR A   3      57.990  30.237   9.314  0.00  0.00    -0.382 OA
ATOM     67  HG1 THR A   3      58.087  29.260   9.441  0.00  0.00    +0.210 HD
ENDBRANCH  64  66
ENDBRANCH   1  64
TORSDOF 29
REMARK  Name = ../refined-set-2016/4pg9/4pg9_pocket.pdb
REMARK  337 active torsions:
REMARK  status: ('A' for Active; 'I' for Inactive)
REMARK    1  A    between atoms: _1  and  _3
REMARK    2  A    between atoms: _3  and  _4
REMARK    3  A    between atoms: _3  and  _6
REMARK    4  A    between atoms: _6  and  _7
REMARK    5  A    between atoms: _10  and  _12
REMARK    6  A    between atoms: _12  and  _13
REMARK    7  A    between atoms: _12  and  _15
REMARK    8  A    between atoms: _15  and  _16
REMARK    9  A    between atoms: _16  and  _17
REMARK   10  A    between atoms: _17  and  _18
REMARK   11  A    between atoms: _27  and  _29
REMARK   12  A    between atoms: _29  and  _30
REMARK   13  A    between atoms: _29  and  _32
REMARK   14  A    between atoms: _32  and  _33
REMARK   15  A    between atoms: _38  and  _39
REMARK   16  A    between atoms: _41  and  _43
REMARK   17  A    between atoms: _43  and  _44
REMARK   18  A    between atoms: _43  and  _46
REMARK   19  A    between atoms: _46  and  _47
REMARK   20  A    between atoms: _53  and  _55
REMARK   21  A    between atoms: _55  and  _56
REMARK   22  A    between atoms: _55  and  _58
REMARK   23  A    between atoms: _61  and  _63
REMARK   24  A    between atoms: _63  and  _64
REMARK   25  A    between atoms: _63  and  _66
REMARK   26  A    between atoms: _66  and  _67
REMARK   27  A    between atoms: _70  and  _72
REMARK   28  A    between atoms: _72  and  _73
REMARK   29  A    between atoms: _72  and  _75
REMARK   30  A    between atoms: _75  and  _76
REMARK   31  A    between atoms: _81  and  _82
REMARK   32  A    between atoms: _84  and  _86
REMARK   33  A    between atoms: _86  and  _87
REMARK   34  A    between atoms: _86  and  _89
REMARK   35  A    between atoms: _89  and  _90
REMARK   36  A    between atoms: _90  and  _91
REMARK   37  A    between atoms: _93  and  _95
REMARK   38  A    between atoms: _95  and  _96
REMARK   39  A    between atoms: _95  and  _98
REMARK   40  A    between atoms: _98  and  _99
REMARK   41  A    between atoms: _99  and  _100
REMARK   42  A    between atoms: _103  and  _105
REMARK   43  A    between atoms: _105  and  _106
REMARK   44  A    between atoms: _105  and  _108
REMARK   45  A    between atoms: _111  and  _113
REMARK   46  A    between atoms: _113  and  _114
REMARK   47  A    between atoms: _116  and  _118
REMARK   48  A    between atoms: _118  and  _119
REMARK   49  A    between atoms: _118  and  _121
REMARK   50  A    between atoms: _124  and  _126
REMARK   51  A    between atoms: _126  and  _127
REMARK   52  A    between atoms: _126  and  _129
REMARK   53  A    between atoms: _129  and  _130
REMARK   54  A    between atoms: _136  and  _138
REMARK   55  A    between atoms: _138  and  _139
REMARK   56  A    between atoms: _138  and  _141
REMARK   57  A    between atoms: _144  and  _146
REMARK   58  A    between atoms: _146  and  _147
REMARK   59  A    between atoms: _146  and  _149
REMARK   60  A    between atoms: _149  and  _150
REMARK   61  A    between atoms: _155  and  _156
REMARK   62  A    between atoms: _158  and  _160
REMARK   63  A    between atoms: _160  and  _161
REMARK   64  A    between atoms: _160  and  _163
REMARK   65  A    between atoms: _163  and  _164
REMARK   66  A    between atoms: _164  and  _165
REMARK   67  A    between atoms: _167  and  _169
REMARK   68  A    between atoms: _169  and  _170
REMARK   69  A    between atoms: _169  and  _172
REMARK   70  A    between atoms: _172  and  _173
REMARK   71  A    between atoms: _173  and  _174
REMARK   72  A    between atoms: _177  and  _179
REMARK   73  A    between atoms: _179  and  _180
REMARK   74  A    between atoms: _179  and  _182
REMARK   75  A    between atoms: _182  and  _183
REMARK   76  A    between atoms: _183  and  _184
REMARK   77  A    between atoms: _187  and  _189
REMARK   78  A    between atoms: _189  and  _190
REMARK   79  A    between atoms: _189  and  _192
REMARK   80  A    between atoms: _192  and  _193
REMARK   81  A    between atoms: _198  and  _199
REMARK   82  A    between atoms: _201  and  _203
REMARK   83  A    between atoms: _203  and  _204
REMARK   84  A    between atoms: _203  and  _206
REMARK   85  A    between atoms: _206  and  _207
REMARK   86  A    between atoms: _207  and  _208
REMARK   87  A    between atoms: _208  and  _209
REMARK   88  A    between atoms: _218  and  _220
REMARK   89  A    between atoms: _220  and  _221
REMARK   90  A    between atoms: _220  and  _223
REMARK   91  A    between atoms: _223  and  _224
REMARK   92  A    between atoms: _224  and  _225
REMARK   93  A    between atoms: _228  and  _230
REMARK   94  A    between atoms: _230  and  _231
REMARK   95  A    between atoms: _230  and  _233
REMARK   96  A    between atoms: _233  and  _234
REMARK   97  A    between atoms: _237  and  _239
REMARK   98  A    between atoms: _239  and  _240
REMARK   99  A    between atoms: _239  and  _242
REMARK  100  A    between atoms: _242  and  _243
REMARK  101  A    between atoms: _243  and  _244
REMARK  102  A    between atoms: _249  and  _251
REMARK  103  A    between atoms: _251  and  _252
REMARK  104  A    between atoms: _251  and  _254
REMARK  105  A    between atoms: _254  and  _255
REMARK  106  A    between atoms: _255  and  _256
REMARK  107  A    between atoms: _256  and  _257
REMARK  108  A    between atoms: _257  and  _258
REMARK  109  A    between atoms: _262  and  _264
REMARK  110  A    between atoms: _264  and  _265
REMARK  111  A    between atoms: _268  and  _270
REMARK  112  A    between atoms: _270  and  _271
REMARK  113  A    between atoms: _273  and  _275
REMARK  114  A    between atoms: _275  and  _276
REMARK  115  A    between atoms: _275  and  _278
REMARK  116  A    between atoms: _278  and  _279
REMARK  117  A    between atoms: _284  and  _286
REMARK  118  A    between atoms: _286  and  _287
REMARK  119  A    between atoms: _286  and  _289
REMARK  120  A    between atoms: _289  and  _290
REMARK  121  A    between atoms: _290  and  _291
REMARK  122  A    between atoms: _294  and  _296
REMARK  123  A    between atoms: _296  and  _297
REMARK  124  A    between atoms: _296  and  _299
REMARK  125  A    between atoms: _299  and  _300
REMARK  126  A    between atoms: _300  and  _301
REMARK  127  A    between atoms: _306  and  _308
REMARK  128  A    between atoms: _308  and  _309
REMARK  129  A    between atoms: _308  and  _311
REMARK  130  A    between atoms: _311  and  _312
REMARK  131  A    between atoms: _314  and  _316
REMARK  132  A    between atoms: _316  and  _317
REMARK  133  A    between atoms: _316  and  _319
REMARK  134  A    between atoms: _319  and  _320
REMARK  135  A    between atoms: _326  and  _328
REMARK  136  A    between atoms: _328  and  _329
REMARK  137  A    between atoms: _328  and  _331
REMARK  138  A    between atoms: _334  and  _336
REMARK  139  A    between atoms: _336  and  _337
REMARK  140  A    between atoms: _336  and  _339
REMARK  141  A    between atoms: _339  and  _340
REMARK  142  A    between atoms: _343  and  _345
REMARK  143  A    between atoms: _345  and  _346
REMARK  144  A    between atoms: _345  and  _348
REMARK  145  A    between atoms: _348  and  _349
REMARK  146  A    between atoms: _352  and  _354
REMARK  147  A    between atoms: _354  and  _355
REMARK  148  A    between atoms: _354  and  _357
REMARK  149  A    between atoms: _357  and  _358
REMARK  150  A    between atoms: _361  and  _363
REMARK  151  A    between atoms: _363  and  _364
REMARK  152  A    between atoms: _363  and  _366
REMARK  153  A    between atoms: _366  and  _367
REMARK  154  A    between atoms: _370  and  _372
REMARK  155  A    between atoms: _372  and  _373
REMARK  156  A    between atoms: _372  and  _375
REMARK  157  A    between atoms: _375  and  _376
REMARK  158  A    between atoms: _381  and  _382
REMARK  159  A    between atoms: _384  and  _386
REMARK  160  A    between atoms: _386  and  _387
REMARK  161  A    between atoms: _386  and  _389
REMARK  162  A    between atoms: _389  and  _390
REMARK  163  A    between atoms: _395  and  _396
REMARK  164  A    between atoms: _398  and  _400
REMARK  165  A    between atoms: _400  and  _401
REMARK  166  A    between atoms: _400  and  _403
REMARK  167  A    between atoms: _403  and  _404
REMARK  168  A    between atoms: _407  and  _409
REMARK  169  A    between atoms: _409  and  _410
REMARK  170  A    between atoms: _409  and  _412
REMARK  171  A    between atoms: _412  and  _413
REMARK  172  A    between atoms: _416  and  _418
REMARK  173  A    between atoms: _418  and  _419
REMARK  174  A    between atoms: _418  and  _421
REMARK  175  A    between atoms: _421  and  _422
REMARK  176  A    between atoms: _422  and  _423
REMARK  177  A    between atoms: _428  and  _430
REMARK  178  A    between atoms: _430  and  _431
REMARK  179  A    between atoms: _430  and  _433
REMARK  180  A    between atoms: _436  and  _438
REMARK  181  A    between atoms: _438  and  _439
REMARK  182  A    between atoms: _438  and  _441
REMARK  183  A    between atoms: _441  and  _442
REMARK  184  A    between atoms: _445  and  _447
REMARK  185  A    between atoms: _447  and  _448
REMARK  186  A    between atoms: _447  and  _450
REMARK  187  A    between atoms: _450  and  _451
REMARK  188  A    between atoms: _453  and  _455
REMARK  189  A    between atoms: _455  and  _456
REMARK  190  A    between atoms: _458  and  _460
REMARK  191  A    between atoms: _460  and  _461
REMARK  192  A    between atoms: _460  and  _463
REMARK  193  A    between atoms: _463  and  _464
REMARK  194  A    between atoms: _464  and  _759
REMARK  195  A    between atoms: _465  and  _467
REMARK  196  A    between atoms: _467  and  _468
REMARK  197  A    between atoms: _467  and  _470
REMARK  198  A    between atoms: _470  and  _471
REMARK  199  A    between atoms: _476  and  _477
REMARK  200  A    between atoms: _479  and  _481
REMARK  201  A    between atoms: _481  and  _482
REMARK  202  A    between atoms: _481  and  _484
REMARK  203  A    between atoms: _484  and  _485
REMARK  204  A    between atoms: _485  and  _486
REMARK  205  A    between atoms: _491  and  _493
REMARK  206  A    between atoms: _493  and  _494
REMARK  207  A    between atoms: _493  and  _496
REMARK  208  A    between atoms: _496  and  _497
REMARK  209  A    between atoms: _497  and  _498
REMARK  210  A    between atoms: _503  and  _505
REMARK  211  A    between atoms: _505  and  _506
REMARK  212  A    between atoms: _505  and  _508
REMARK  213  A    between atoms: _508  and  _509
REMARK  214  A    between atoms: _514  and  _515
REMARK  215  A    between atoms: _517  and  _519
REMARK  216  A    between atoms: _519  and  _520
REMARK  217  A    between atoms: _523  and  _525
REMARK  218  A    between atoms: _525  and  _526
REMARK  219  A    between atoms: _525  and  _528
REMARK  220  A    between atoms: _528  and  _529
REMARK  221  A    between atoms: _534  and  _535
REMARK  222  A    between atoms: _537  and  _539
REMARK  223  A    between atoms: _539  and  _540
REMARK  224  A    between atoms: _539  and  _542
REMARK  225  A    between atoms: _542  and  _543
REMARK  226  A    between atoms: _548  and  _549
REMARK  227  A    between atoms: _551  and  _553
REMARK  228  A    between atoms: _553  and  _554
REMARK  229  A    between atoms: _553  and  _556
REMARK  230  A    between atoms: _556  and  _557
REMARK  231  A    between atoms: _560  and  _562
REMARK  232  A    between atoms: _562  and  _563
REMARK  233  A    between atoms: _562  and  _565
REMARK  234  A    between atoms: _565  and  _566
REMARK  235  A    between atoms: _576  and  _578
REMARK  236  A    between atoms: _578  and  _579
REMARK  237  A    between atoms: _582  and  _584
REMARK  238  A    between atoms: _584  and  _585
REMARK  239  A    between atoms: _588  and  _590
REMARK  240  A    between atoms: _590  and  _591
REMARK  241  A    between atoms: _590  and  _593
REMARK  242  A    between atoms: _593  and  _594
REMARK  243  A    between atoms: _597  and  _599
REMARK  244  A    between atoms: _599  and  _600
REMARK  245  A    between atoms: _599  and  _602
REMARK  246  A    between atoms: _602  and  _603
REMARK  247  A    between atoms: _606  and  _608
REMARK  248  A    between atoms: _608  and  _609
REMARK  249  A    between atoms: _608  and  _611
REMARK  250  A    between atoms: _611  and  _612
REMARK  251  A    between atoms: _615  and  _617
REMARK  252  A    between atoms: _617  and  _618
REMARK  253  A    between atoms: _617  and  _620
REMARK  254  A    between atoms: _620  and  _621
REMARK  255  A    between atoms: _621  and  _622
REMARK  256  A    between atoms: _622  and  _623
REMARK  257  A    between atoms: _623  and  _624
REMARK  258  A    between atoms: _628  and  _630
REMARK  259  A    between atoms: _630  and  _631
REMARK  260  A    between atoms: _630  and  _633
REMARK  261  A    between atoms: _633  and  _634
REMARK  262  A    between atoms: _639  and  _641
REMARK  263  A    between atoms: _641  and  _642
REMARK  264  A    between atoms: _641  and  _644
REMARK  265  A    between atoms: _644  and  _645
REMARK  266  A    between atoms: _645  and  _646
REMARK  267  A    between atoms: _646  and  _647
REMARK  268  A    between atoms: _647  and  _648
REMARK  269  A    between atoms: _652  and  _654
REMARK  270  A    between atoms: _654  and  _655
REMARK  271  A    between atoms: _654  and  _657
REMARK  272  A    between atoms: _657  and  _658
REMARK  273  A    between atoms: _668  and  _670
REMARK  274  A    between atoms: _670  and  _671
REMARK  275  A    between atoms: _674  and  _676
REMARK  276  A    between atoms: _676  and  _677
REMARK  277  A    between atoms: _679  and  _681
REMARK  278  A    between atoms: _681  and  _682
REMARK  279  A    between atoms: _681  and  _684
REMARK  280  A    between atoms: _684  and  _685
REMARK  281  A    between atoms: _685  and  _686
REMARK  282  A    between atoms: _689  and  _691
REMARK  283  A    between atoms: _691  and  _692
REMARK  284  A    between atoms: _695  and  _697
REMARK  285  A    between atoms: _697  and  _698
REMARK  286  A    between atoms: _697  and  _700
REMARK  287  A    between atoms: _700  and  _701
REMARK  288  A    between atoms: _701  and  _702
REMARK  289  A    between atoms: _702  and  _703
REMARK  290  A    between atoms: _712  and  _714
REMARK  291  A    between atoms: _714  and  _715
REMARK  292  A    between atoms: _714  and  _717
REMARK  293  A    between atoms: _717  and  _718
REMARK  294  A    between atoms: _721  and  _723
REMARK  295  A    between atoms: _723  and  _724
REMARK  296  A    between atoms: _723  and  _726
REMARK  297  A    between atoms: _726  and  _727
REMARK  298  A    between atoms: _732  and  _733
REMARK  299  A    between atoms: _735  and  _737
REMARK  300  A    between atoms: _737  and  _738
REMARK  301  A    between atoms: _737  and  _740
REMARK  302  A    between atoms: _740  and  _741
REMARK  303  A    between atoms: _744  and  _746
REMARK  304  A    between atoms: _746  and  _747
REMARK  305  A    between atoms: _746  and  _749
REMARK  306  A    between atoms: _749  and  _750
REMARK  307  A    between atoms: _753  and  _755
REMARK  308  A    between atoms: _755  and  _756
REMARK  309  A    between atoms: _755  and  _758
REMARK  310  A    between atoms: _758  and  _759
REMARK  311  A    between atoms: _760  and  _762
REMARK  312  A    between atoms: _762  and  _763
REMARK  313  A    between atoms: _762  and  _765
REMARK  314  A    between atoms: _768  and  _770
REMARK  315  A    between atoms: _770  and  _771
REMARK  316  A    between atoms: _770  and  _773
REMARK  317  A    between atoms: _773  and  _774
REMARK  318  A    between atoms: _774  and  _775
REMARK  319  A    between atoms: _778  and  _780
REMARK  320  A    between atoms: _780  and  _781
REMARK  321  A    between atoms: _780  and  _783
REMARK  322  A    between atoms: _783  and  _784
REMARK  323  A    between atoms: _794  and  _796
REMARK  324  A    between atoms: _796  and  _797
REMARK  325  A    between atoms: _796  and  _799
REMARK  326  A    between atoms: _799  and  _800
REMARK  327  A    between atoms: _803  and  _805
REMARK  328  A    between atoms: _805  and  _806
REMARK  329  A    between atoms: _805  and  _808
REMARK  330  A    between atoms: _808  and  _809
REMARK  331  A    between atoms: _809  and  _810
REMARK  332  A    between atoms: _810  and  _811
REMARK  333  A    between atoms: _820  and  _822
REMARK  334  A    between atoms: _822  and  _823
REMARK  335  A    between atoms: _822  and  _825
REMARK  336  A    between atoms: _825  and  _826
REMARK  337  A    between atoms: _831  and  _832
REMARK                            x       y       z     vdW  Elec       q    Type
REMARK                         _______ _______ _______ _____ _____    ______ ____
ROOT
ATOM      1  CA  GLN A   4      58.339  36.274  -4.051  0.00  0.00    +0.149 C 
ENDROOT
BRANCH   1   2
ATOM      2  C   GLN A   4      58.292  35.722  -5.479  0.00  0.00    +0.241 C 
ATOM      3  N   SER A   5      58.586  34.435  -5.643  0.00  0.00    -0.295 N 
ATOM      4  H   SER A   5      58.847  33.855  -4.820  0.00  0.00    +0.150 HD
ATOM      5  O   GLN A   4      57.960  36.449  -6.418  0.00  0.00    -0.273 OA
BRANCH   3   6
ATOM      6  CA  SER A   5      58.545  33.830  -6.975  0.00  0.00    +0.178 C 
BRANCH   6   7
ATOM      7  C   SER A   5      57.143  33.927  -7.593  0.00  0.00    +0.243 C 
ATOM      8  N   PHE A   6      56.099  33.791  -6.771  0.00  0.00    -0.298 N 
ATOM      9  H   PHE A   6      56.263  33.591  -5.764  0.00  0.00    +0.150 HD
ATOM     10  O   SER A   5      57.018  34.147  -8.803  0.00  0.00    -0.273 OA
BRANCH   8  11
ATOM     11  CA  PHE A   6      54.718  33.920  -7.269  0.00  0.00    +0.141 C 
BRANCH  11  12
ATOM     12  C   PHE A   6      54.328  35.367  -7.606  0.00  0.00    +0.227 C 
ATOM     13  O   PHE A   6      53.536  35.584  -8.526  0.00  0.00    -0.286 OA
ENDBRANCH  11  12
BRANCH  11  14
ATOM     14  CB  PHE A   6      53.702  33.250  -6.325  0.00  0.00    +0.054 C 
BRANCH  14  15
ATOM     15  CG  PHE A   6      53.692  31.745  -6.432  0.00  0.00    -0.020 A 
ATOM     16  CD2 PHE A   6      54.219  30.952  -5.424  0.00  0.00    -0.004 A 
ATOM     17  CE2 PHE A   6      54.230  29.572  -5.535  0.00  0.00    -0.000 A 
ATOM     18  CZ  PHE A   6      53.720  28.968  -6.669  0.00  0.00    -0.000 A 
ATOM     19  CE1 PHE A   6      53.195  29.745  -7.682  0.00  0.00    -0.000 A 
ATOM     20  CD1 PHE A   6      53.184  31.124  -7.562  0.00  0.00    -0.004 A 
ENDBRANCH  14  15
ENDBRANCH  11  14
ENDBRANCH   8  11
ENDBRANCH   6   7
BRANCH   6  21
ATOM     21  CB  SER A   5      59.054  32.382  -6.954  0.00  0.00    +0.166 C 
BRANCH  21  22
ATOM     22  OG  SER A   5      58.224  31.540  -6.174  0.00  0.00    -0.380 OA
ATOM     23  H   SER A   5      58.200  31.874  -5.242  0.00  0.00    +0.211 HD
ENDBRANCH  21  22
ENDBRANCH   6  21
ENDBRANCH   3   6
ENDBRANCH   1   2
BRANCH   1  25
ATOM     24  C   GLU A   3      56.446  35.052  -3.132  0.00  0.00    +0.241 C 
ATOM     25  N   GLN A   4      57.737  35.359  -3.077  0.00  0.00    -0.297 N 
ATOM     26  H   GLN A   4      58.330  34.943  -2.331  0.00  0.00    +0.150 HD
ATOM     27  O   GLU A   3      55.713  35.415  -4.047  0.00  0.00    -0.273 OA
BRANCH  24  28
ATOM     28  CA  GLU A   3      55.899  34.180  -2.009  0.00  0.00    +0.149 C 
BRANCH  28  30
ATOM     29  C   ASN A   2      57.038  32.202  -2.896  0.00  0.00    +0.241 C 
ATOM     30  N   GLU A   3      56.678  32.952  -1.859  0.00  0.00    -0.297 N 
ATOM     31  H   GLU A   3      56.962  32.654  -0.904  0.00  0.00    +0.150 HD
ATOM     32  O   ASN A   2      56.640  32.392  -4.037  0.00  0.00    -0.273 OA
BRANCH  29  33
ATOM     33  CA  ASN A   2      57.982  31.057  -2.591  0.00  0.00    +0.158 C 
BRANCH  33  35
ATOM     34  C   GLY A   1      59.913  32.392  -1.909  0.00  0.00    +0.240 C 
ATOM     35  N   ASN A   2      59.016  31.444  -1.639  0.00  0.00    -0.297 N 
ATOM     36  H   ASN A   2      59.055  30.964  -0.717  0.00  0.00    +0.150 HD
ATOM     37  O   GLY A   1      59.936  33.026  -2.964  0.00  0.00    -0.274 OA
BRANCH  34  38
ATOM     38  CA  GLY A   1      60.924  32.675  -0.816  0.00  0.00    +0.169 C 
BRANCH  38  39
ATOM     39  N   GLY A   1      60.258  32.802   0.475  0.00  0.00    -0.236 NA
ATOM     40  H   GLY A   1      60.436  32.088   1.210  0.00  0.00    +0.142 HD
ENDBRANCH  38  39
ENDBRANCH  34  38
ENDBRANCH  33  35
BRANCH  33  41
ATOM     41  CB  ASN A   2      57.168  29.875  -2.057  0.00  0.00    +0.114 C 
BRANCH  41  42
ATOM     42  CG  ASN A   2      57.978  28.598  -1.958  0.00  0.00    +0.222 C 
ATOM     43  ND2 ASN A   2      57.594  27.736  -1.026  0.00  0.00    -0.329 N 
ATOM     44 HD21 ASN A   2      56.784  27.959  -0.413  0.00  0.00    +0.145 HD
ATOM     45 HD22 ASN A   2      58.103  26.837  -0.908  0.00  0.00    +0.145 HD
ATOM     46  OD1 ASN A   2      58.930  28.381  -2.709  0.00  0.00    -0.275 OA
ENDBRANCH  41  42
ENDBRANCH  33  41
ENDBRANCH  29  33
ENDBRANCH  28  30
BRANCH  28  47
ATOM     47  CB  GLU A   3      55.899  34.967  -0.701  0.00  0.00    +0.041 C 
BRANCH  47  48
ATOM     48  CG  GLU A   3      55.014  36.200  -0.696  0.00  0.00    +0.116 C 
BRANCH  48  49
ATOM     49  CD  GLU A   3      54.826  36.781   0.698  0.00  0.00    +0.365 C 
ATOM     50  OE2 GLU A   3      55.523  36.344   1.636  0.00  0.00    -0.246 OA
ATOM     51  OE1 GLU A   3      53.978  37.683   0.864  0.00  0.00    -0.246 OA
ENDBRANCH  48  49
ENDBRANCH  47  48
ENDBRANCH  28  47
ENDBRANCH  24  28
ENDBRANCH   1  25
BRANCH   1  52
ATOM     52  CB  GLN A   4      59.776  36.640  -3.659  0.00  0.00    +0.039 C 
BRANCH  52  53
ATOM     53  CG  GLN A   4      59.906  37.353  -2.315  0.00  0.00    +0.087 C 
BRANCH  53  54
ATOM     54  CD  GLN A   4      59.119  38.662  -2.222  0.00  0.00    +0.219 C 
ATOM     55  OE1 GLN A   4      58.321  38.862  -1.295  0.00  0.00    -0.275 OA
ATOM     56  NE2 GLN A   4      59.343  39.562  -3.178  0.00  0.00    -0.329 N 
ATOM     57 HE21 GLN A   4      58.840  40.472  -3.164  0.00  0.00    +0.145 HD
ATOM     58 HE22 GLN A   4      60.021  39.355  -3.939  0.00  0.00    +0.145 HD
ENDBRANCH  53  54
ENDBRANCH  52  53
ENDBRANCH   1  52
TORSDOF 24
REMARK  Name = ../refined-set-2016/4pg9/4pg9_pocket.pdb
REMARK  337 active torsions:
REMARK  status: ('A' for Active; 'I' for Inactive)
REMARK    1  A    between atoms: _1  and  _3
REMARK    2  A    between atoms: _3  and  _4
REMARK    3  A    between atoms: _3  and  _6
REMARK    4  A    between atoms: _6  and  _7
REMARK    5  A    between atoms: _10  and  _12
REMARK    6  A    between atoms: _12  and  _13
REMARK    7  A    between atoms: _12  and  _15
REMARK    8  A    between atoms: _15  and  _16
REMARK    9  A    between atoms: _16  and  _17
REMARK   10  A    between atoms: _17  and  _18
REMARK   11  A    between atoms: _27  and  _29
REMARK   12  A    between atoms: _29  and  _30
REMARK   13  A    between atoms: _29  and  _32
REMARK   14  A    between atoms: _32  and  _33
REMARK   15  A    between atoms: _38  and  _39
REMARK   16  A    between atoms: _41  and  _43
REMARK   17  A    between atoms: _43  and  _44
REMARK   18  A    between atoms: _43  and  _46
REMARK   19  A    between atoms: _46  and  _47
REMARK   20  A    between atoms: _53  and  _55
REMARK   21  A    between atoms: _55  and  _56
REMARK   22  A    between atoms: _55  and  _58
REMARK   23  A    between atoms: _61  and  _63
REMARK   24  A    between atoms: _63  and  _64
REMARK   25  A    between atoms: _63  and  _66
REMARK   26  A    between atoms: _66  and  _67
REMARK   27  A    between atoms: _70  and  _72
REMARK   28  A    between atoms: _72  and  _73
REMARK   29  A    between atoms: _72  and  _75
REMARK   30  A    between atoms: _75  and  _76
REMARK   31  A    between atoms: _81  and  _82
REMARK   32  A    between atoms: _84  and  _86
REMARK   33  A    between atoms: _86  and  _87
REMARK   34  A    between atoms: _86  and  _89
REMARK   35  A    between atoms: _89  and  _90
REMARK   36  A    between atoms: _90  and  _91
REMARK   37  A    between atoms: _93  and  _95
REMARK   38  A    between atoms: _95  and  _96
REMARK   39  A    between atoms: _95  and  _98
REMARK   40  A    between atoms: _98  and  _99
REMARK   41  A    between atoms: _99  and  _100
REMARK   42  A    between atoms: _103  and  _105
REMARK   43  A    between atoms: _105  and  _106
REMARK   44  A    between atoms: _105  and  _108
REMARK   45  A    between atoms: _111  and  _113
REMARK   46  A    between atoms: _113  and  _114
REMARK   47  A    between atoms: _116  and  _118
REMARK   48  A    between atoms: _118  and  _119
REMARK   49  A    between atoms: _118  and  _121
REMARK   50  A    between atoms: _124  and  _126
REMARK   51  A    between atoms: _126  and  _127
REMARK   52  A    between atoms: _126  and  _129
REMARK   53  A    between atoms: _129  and  _130
REMARK   54  A    between atoms: _136  and  _138
REMARK   55  A    between atoms: _138  and  _139
REMARK   56  A    between atoms: _138  and  _141
REMARK   57  A    between atoms: _144  and  _146
REMARK   58  A    between atoms: _146  and  _147
REMARK   59  A    between atoms: _146  and  _149
REMARK   60  A    between atoms: _149  and  _150
REMARK   61  A    between atoms: _155  and  _156
REMARK   62  A    between atoms: _158  and  _160
REMARK   63  A    between atoms: _160  and  _161
REMARK   64  A    between atoms: _160  and  _163
REMARK   65  A    between atoms: _163  and  _164
REMARK   66  A    between atoms: _164  and  _165
REMARK   67  A    between atoms: _167  and  _169
REMARK   68  A    between atoms: _169  and  _170
REMARK   69  A    between atoms: _169  and  _172
REMARK   70  A    between atoms: _172  and  _173
REMARK   71  A    between atoms: _173  and  _174
REMARK   72  A    between atoms: _177  and  _179
REMARK   73  A    between atoms: _179  and  _180
REMARK   74  A    between atoms: _179  and  _182
REMARK   75  A    between atoms: _182  and  _183
REMARK   76  A    between atoms: _183  and  _184
REMARK   77  A    between atoms: _187  and  _189
REMARK   78  A    between atoms: _189  and  _190
REMARK   79  A    between atoms: _189  and  _192
REMARK   80  A    between atoms: _192  and  _193
REMARK   81  A    between atoms: _198  and  _199
REMARK   82  A    between atoms: _201  and  _203
REMARK   83  A    between atoms: _203  and  _204
REMARK   84  A    between atoms: _203  and  _206
REMARK   85  A    between atoms: _206  and  _207
REMARK   86  A    between atoms: _207  and  _208
REMARK   87  A    between atoms: _208  and  _209
REMARK   88  A    between atoms: _218  and  _220
REMARK   89  A    between atoms: _220  and  _221
REMARK   90  A    between atoms: _220  and  _223
REMARK   91  A    between atoms: _223  and  _224
REMARK   92  A    between atoms: _224  and  _225
REMARK   93  A    between atoms: _228  and  _230
REMARK   94  A    between atoms: _230  and  _231
REMARK   95  A    between atoms: _230  and  _233
REMARK   96  A    between atoms: _233  and  _234
REMARK   97  A    between atoms: _237  and  _239
REMARK   98  A    between atoms: _239  and  _240
REMARK   99  A    between atoms: _239  and  _242
REMARK  100  A    between atoms: _242  and  _243
REMARK  101  A    between atoms: _243  and  _244
REMARK  102  A    between atoms: _249  and  _251
REMARK  103  A    between atoms: _251  and  _252
REMARK  104  A    between atoms: _251  and  _254
REMARK  105  A    between atoms: _254  and  _255
REMARK  106  A    between atoms: _255  and  _256
REMARK  107  A    between atoms: _256  and  _257
REMARK  108  A    between atoms: _257  and  _258
REMARK  109  A    between atoms: _262  and  _264
REMARK  110  A    between atoms: _264  and  _265
REMARK  111  A    between atoms: _268  and  _270
REMARK  112  A    between atoms: _270  and  _271
REMARK  113  A    between atoms: _273  and  _275
REMARK  114  A    between atoms: _275  and  _276
REMARK  115  A    between atoms: _275  and  _278
REMARK  116  A    between atoms: _278  and  _279
REMARK  117  A    between atoms: _284  and  _286
REMARK  118  A    between atoms: _286  and  _287
REMARK  119  A    between atoms: _286  and  _289
REMARK  120  A    between atoms: _289  and  _290
REMARK  121  A    between atoms: _290  and  _291
REMARK  122  A    between atoms: _294  and  _296
REMARK  123  A    between atoms: _296  and  _297
REMARK  124  A    between atoms: _296  and  _299
REMARK  125  A    between atoms: _299  and  _300
REMARK  126  A    between atoms: _300  and  _301
REMARK  127  A    between atoms: _306  and  _308
REMARK  128  A    between atoms: _308  and  _309
REMARK  129  A    between atoms: _308  and  _311
REMARK  130  A    between atoms: _311  and  _312
REMARK  131  A    between atoms: _314  and  _316
REMARK  132  A    between atoms: _316  and  _317
REMARK  133  A    between atoms: _316  and  _319
REMARK  134  A    between atoms: _319  and  _320
REMARK  135  A    between atoms: _326  and  _328
REMARK  136  A    between atoms: _328  and  _329
REMARK  137  A    between atoms: _328  and  _331
REMARK  138  A    between atoms: _334  and  _336
REMARK  139  A    between atoms: _336  and  _337
REMARK  140  A    between atoms: _336  and  _339
REMARK  141  A    between atoms: _339  and  _340
REMARK  142  A    between atoms: _343  and  _345
REMARK  143  A    between atoms: _345  and  _346
REMARK  144  A    between atoms: _345  and  _348
REMARK  145  A    between atoms: _348  and  _349
REMARK  146  A    between atoms: _352  and  _354
REMARK  147  A    between atoms: _354  and  _355
REMARK  148  A    between atoms: _354  and  _357
REMARK  149  A    between atoms: _357  and  _358
REMARK  150  A    between atoms: _361  and  _363
REMARK  151  A    between atoms: _363  and  _364
REMARK  152  A    between atoms: _363  and  _366
REMARK  153  A    between atoms: _366  and  _367
REMARK  154  A    between atoms: _370  and  _372
REMARK  155  A    between atoms: _372  and  _373
REMARK  156  A    between atoms: _372  and  _375
REMARK  157  A    between atoms: _375  and  _376
REMARK  158  A    between atoms: _381  and  _382
REMARK  159  A    between atoms: _384  and  _386
REMARK  160  A    between atoms: _386  and  _387
REMARK  161  A    between atoms: _386  and  _389
REMARK  162  A    between atoms: _389  and  _390
REMARK  163  A    between atoms: _395  and  _396
REMARK  164  A    between atoms: _398  and  _400
REMARK  165  A    between atoms: _400  and  _401
REMARK  166  A    between atoms: _400  and  _403
REMARK  167  A    between atoms: _403  and  _404
REMARK  168  A    between atoms: _407  and  _409
REMARK  169  A    between atoms: _409  and  _410
REMARK  170  A    between atoms: _409  and  _412
REMARK  171  A    between atoms: _412  and  _413
REMARK  172  A    between atoms: _416  and  _418
REMARK  173  A    between atoms: _418  and  _419
REMARK  174  A    between atoms: _418  and  _421
REMARK  175  A    between atoms: _421  and  _422
REMARK  176  A    between atoms: _422  and  _423
REMARK  177  A    between atoms: _428  and  _430
REMARK  178  A    between atoms: _430  and  _431
REMARK  179  A    between atoms: _430  and  _433
REMARK  180  A    between atoms: _436  and  _438
REMARK  181  A    between atoms: _438  and  _439
REMARK  182  A    between atoms: _438  and  _441
REMARK  183  A    between atoms: _441  and  _442
REMARK  184  A    between atoms: _445  and  _447
REMARK  185  A    between atoms: _447  and  _448
REMARK  186  A    between atoms: _447  and  _450
REMARK  187  A    between atoms: _450  and  _451
REMARK  188  A    between atoms: _453  and  _455
REMARK  189  A    between atoms: _455  and  _456
REMARK  190  A    between atoms: _458  and  _460
REMARK  191  A    between atoms: _460  and  _461
REMARK  192  A    between atoms: _460  and  _463
REMARK  193  A    between atoms: _463  and  _464
REMARK  194  A    between atoms: _464  and  _759
REMARK  195  A    between atoms: _465  and  _467
REMARK  196  A    between atoms: _467  and  _468
REMARK  197  A    between atoms: _467  and  _470
REMARK  198  A    between atoms: _470  and  _471
REMARK  199  A    between atoms: _476  and  _477
REMARK  200  A    between atoms: _479  and  _481
REMARK  201  A    between atoms: _481  and  _482
REMARK  202  A    between atoms: _481  and  _484
REMARK  203  A    between atoms: _484  and  _485
REMARK  204  A    between atoms: _485  and  _486
REMARK  205  A    between atoms: _491  and  _493
REMARK  206  A    between atoms: _493  and  _494
REMARK  207  A    between atoms: _493  and  _496
REMARK  208  A    between atoms: _496  and  _497
REMARK  209  A    between atoms: _497  and  _498
REMARK  210  A    between atoms: _503  and  _505
REMARK  211  A    between atoms: _505  and  _506
REMARK  212  A    between atoms: _505  and  _508
REMARK  213  A    between atoms: _508  and  _509
REMARK  214  A    between atoms: _514  and  _515
REMARK  215  A    between atoms: _517  and  _519
REMARK  216  A    between atoms: _519  and  _520
REMARK  217  A    between atoms: _523  and  _525
REMARK  218  A    between atoms: _525  and  _526
REMARK  219  A    between atoms: _525  and  _528
REMARK  220  A    between atoms: _528  and  _529
REMARK  221  A    between atoms: _534  and  _535
REMARK  222  A    between atoms: _537  and  _539
REMARK  223  A    between atoms: _539  and  _540
REMARK  224  A    between atoms: _539  and  _542
REMARK  225  A    between atoms: _542  and  _543
REMARK  226  A    between atoms: _548  and  _549
REMARK  227  A    between atoms: _551  and  _553
REMARK  228  A    between atoms: _553  and  _554
REMARK  229  A    between atoms: _553  and  _556
REMARK  230  A    between atoms: _556  and  _557
REMARK  231  A    between atoms: _560  and  _562
REMARK  232  A    between atoms: _562  and  _563
REMARK  233  A    between atoms: _562  and  _565
REMARK  234  A    between atoms: _565  and  _566
REMARK  235  A    between atoms: _576  and  _578
REMARK  236  A    between atoms: _578  and  _579
REMARK  237  A    between atoms: _582  and  _584
REMARK  238  A    between atoms: _584  and  _585
REMARK  239  A    between atoms: _588  and  _590
REMARK  240  A    between atoms: _590  and  _591
REMARK  241  A    between atoms: _590  and  _593
REMARK  242  A    between atoms: _593  and  _594
REMARK  243  A    between atoms: _597  and  _599
REMARK  244  A    between atoms: _599  and  _600
REMARK  245  A    between atoms: _599  and  _602
REMARK  246  A    between atoms: _602  and  _603
REMARK  247  A    between atoms: _606  and  _608
REMARK  248  A    between atoms: _608  and  _609
REMARK  249  A    between atoms: _608  and  _611
REMARK  250  A    between atoms: _611  and  _612
REMARK  251  A    between atoms: _615  and  _617
REMARK  252  A    between atoms: _617  and  _618
REMARK  253  A    between atoms: _617  and  _620
REMARK  254  A    between atoms: _620  and  _621
REMARK  255  A    between atoms: _621  and  _622
REMARK  256  A    between atoms: _622  and  _623
REMARK  257  A    between atoms: _623  and  _624
REMARK  258  A    between atoms: _628  and  _630
REMARK  259  A    between atoms: _630  and  _631
REMARK  260  A    between atoms: _630  and  _633
REMARK  261  A    between atoms: _633  and  _634
REMARK  262  A    between atoms: _639  and  _641
REMARK  263  A    between atoms: _641  and  _642
REMARK  264  A    between atoms: _641  and  _644
REMARK  265  A    between atoms: _644  and  _645
REMARK  266  A    between atoms: _645  and  _646
REMARK  267  A    between atoms: _646  and  _647
REMARK  268  A    between atoms: _647  and  _648
REMARK  269  A    between atoms: _652  and  _654
REMARK  270  A    between atoms: _654  and  _655
REMARK  271  A    between atoms: _654  and  _657
REMARK  272  A    between atoms: _657  and  _658
REMARK  273  A    between atoms: _668  and  _670
REMARK  274  A    between atoms: _670  and  _671
REMARK  275  A    between atoms: _674  and  _676
REMARK  276  A    between atoms: _676  and  _677
REMARK  277  A    between atoms: _679  and  _681
REMARK  278  A    between atoms: _681  and  _682
REMARK  279  A    between atoms: _681  and  _684
REMARK  280  A    between atoms: _684  and  _685
REMARK  281  A    between atoms: _685  and  _686
REMARK  282  A    between atoms: _689  and  _691
REMARK  283  A    between atoms: _691  and  _692
REMARK  284  A    between atoms: _695  and  _697
REMARK  285  A    between atoms: _697  and  _698
REMARK  286  A    between atoms: _697  and  _700
REMARK  287  A    between atoms: _700  and  _701
REMARK  288  A    between atoms: _701  and  _702
REMARK  289  A    between atoms: _702  and  _703
REMARK  290  A    between atoms: _712  and  _714
REMARK  291  A    between atoms: _714  and  _715
REMARK  292  A    between atoms: _714  and  _717
REMARK  293  A    between atoms: _717  and  _718
REMARK  294  A    between atoms: _721  and  _723
REMARK  295  A    between atoms: _723  and  _724
REMARK  296  A    between atoms: _723  and  _726
REMARK  297  A    between atoms: _726  and  _727
REMARK  298  A    between atoms: _732  and  _733
REMARK  299  A    between atoms: _735  and  _737
REMARK  300  A    between atoms: _737  and  _738
REMARK  301  A    between atoms: _737  and  _740
REMARK  302  A    between atoms: _740  and  _741
REMARK  303  A    between atoms: _744  and  _746
REMARK  304  A    between atoms: _746  and  _747
REMARK  305  A    between atoms: _746  and  _749
REMARK  306  A    between atoms: _749  and  _750
REMARK  307  A    between atoms: _753  and  _755
REMARK  308  A    between atoms: _755  and  _756
REMARK  309  A    between atoms: _755  and  _758
REMARK  310  A    between atoms: _758  and  _759
REMARK  311  A    between atoms: _760  and  _762
REMARK  312  A    between atoms: _762  and  _763
REMARK  313  A    between atoms: _762  and  _765
REMARK  314  A    between atoms: _768  and  _770
REMARK  315  A    between atoms: _770  and  _771
REMARK  316  A    between atoms: _770  and  _773
REMARK  317  A    between atoms: _773  and  _774
REMARK  318  A    between atoms: _774  and  _775
REMARK  319  A    between atoms: _778  and  _780
REMARK  320  A    between atoms: _780  and  _781
REMARK  321  A    between atoms: _780  and  _783
REMARK  322  A    between atoms: _783  and  _784
REMARK  323  A    between atoms: _794  and  _796
REMARK  324  A    between atoms: _796  and  _797
REMARK  325  A    between atoms: _796  and  _799
REMARK  326  A    between atoms: _799  and  _800
REMARK  327  A    between atoms: _803  and  _805
REMARK  328  A    between atoms: _805  and  _806
REMARK  329  A    between atoms: _805  and  _808
REMARK  330  A    between atoms: _808  and  _809
REMARK  331  A    between atoms: _809  and  _810
REMARK  332  A    between atoms: _810  and  _811
REMARK  333  A    between atoms: _820  and  _822
REMARK  334  A    between atoms: _822  and  _823
REMARK  335  A    between atoms: _822  and  _825
REMARK  336  A    between atoms: _825  and  _826
REMARK  337  A    between atoms: _831  and  _832
REMARK                            x       y       z     vdW  Elec       q    Type
REMARK                         _______ _______ _______ _____ _____    ______ ____
ROOT
ATOM      1  CA  ASP A   2      54.826  34.771 -11.861  0.00  0.00    +0.160 C 
ENDROOT
BRANCH   1   3
ATOM      2  C   VAL A   1      56.169  36.749 -11.322  0.00  0.00    +0.238 C 
ATOM      3  N   ASP A   2      55.697  35.551 -10.973  0.00  0.00    -0.297 N 
ATOM      4  H   ASP A   2      55.954  35.158 -10.045  0.00  0.00    +0.150 HD
ATOM      5  O   VAL A   1      55.952  37.261 -12.415  0.00  0.00    -0.274 OA
BRANCH   2   6
ATOM      6  CA  VAL A   1      56.995  37.503 -10.280  0.00  0.00    +0.145 C 
BRANCH   6   7
ATOM      7  CB  VAL A   1      58.452  36.989 -10.266  0.00  0.00    +0.025 C 
ATOM      8  CG2 VAL A   1      59.301  37.855  -9.343  0.00  0.00    +0.002 C 
ATOM      9  CG1 VAL A   1      59.040  36.973 -11.675  0.00  0.00    +0.002 C 
ENDBRANCH   6   7
BRANCH   6  10
ATOM     10  N   VAL A   1      56.377  37.391  -8.970  0.00  0.00    -0.238 NA
ATOM     11  H   VAL A   1      56.843  36.815  -8.241  0.00  0.00    +0.142 HD
ENDBRANCH   6  10
ENDBRANCH   2   6
ENDBRANCH   1   3
BRANCH   1  12
ATOM     12  C   ASP A   2      53.599  35.566 -12.301  0.00  0.00    +0.241 C 
ATOM     13  N   LEU A   3      52.961  36.243 -11.352  0.00  0.00    -0.298 N 
ATOM     14  H   LEU A   3      53.302  36.186 -10.371  0.00  0.00    +0.150 HD
ATOM     15  O   ASP A   2      53.233  35.553 -13.477  0.00  0.00    -0.273 OA
BRANCH  13  16
ATOM     16  CA  LEU A   3      51.792  37.066 -11.653  0.00  0.00    +0.137 C 
BRANCH  16  17
ATOM     17  C   LEU A   3      52.108  38.119 -12.702  0.00  0.00    +0.227 C 
ATOM     18  O   LEU A   3      51.345  38.293 -13.651  0.00  0.00    -0.286 OA
ENDBRANCH  16  17
BRANCH  16  19
ATOM     19  CB  LEU A   3      51.248  37.733 -10.389  0.00  0.00    +0.028 C 
BRANCH  19  20
ATOM     20  CG  LEU A   3      50.590  36.767  -9.405  0.00  0.00    +0.002 C 
ATOM     21  CD2 LEU A   3      50.471  37.407  -8.032  0.00  0.00    +0.000 C 
ATOM     22  CD1 LEU A   3      49.228  36.299  -9.917  0.00  0.00    +0.000 C 
ENDBRANCH  19  20
ENDBRANCH  16  19
ENDBRANCH  13  16
ENDBRANCH   1  12
BRANCH   1  23
ATOM     23  CB  ASP A   2      54.329  33.496 -11.178  0.00  0.00    +0.143 C 
BRANCH  23  24
ATOM     24  CG  ASP A   2      55.426  32.481 -10.924  0.00  0.00    +0.367 C 
ATOM     25  OD2 ASP A   2      55.145  31.547 -10.152  0.00  0.00    -0.246 OA
ATOM     26  OD1 ASP A   2      56.541  32.592 -11.482  0.00  0.00    -0.246 OA
ENDBRANCH  23  24
ENDBRANCH   1  23
TORSDOF 11
REMARK  Name = ../refined-set-2016/4pg9/4pg9_pocket.pdb
REMARK  337 active torsions:
REMARK  status: ('A' for Active; 'I' for Inactive)
REMARK    1  A    between atoms: _1  and  _3
REMARK    2  A    between atoms: _3  and  _4
REMARK    3  A    between atoms: _3  and  _6
REMARK    4  A    between atoms: _6  and  _7
REMARK    5  A    between atoms: _10  and  _12
REMARK    6  A    between atoms: _12  and  _13
REMARK    7  A    between atoms: _12  and  _15
REMARK    8  A    between atoms: _15  and  _16
REMARK    9  A    between atoms: _16  and  _17
REMARK   10  A    between atoms: _17  and  _18
REMARK   11  A    between atoms: _27  and  _29
REMARK   12  A    between atoms: _29  and  _30
REMARK   13  A    between atoms: _29  and  _32
REMARK   14  A    between atoms: _32  and  _33
REMARK   15  A    between atoms: _38  and  _39
REMARK   16  A    between atoms: _41  and  _43
REMARK   17  A    between atoms: _43  and  _44
REMARK   18  A    between atoms: _43  and  _46
REMARK   19  A    between atoms: _46  and  _47
REMARK   20  A    between atoms: _53  and  _55
REMARK   21  A    between atoms: _55  and  _56
REMARK   22  A    between atoms: _55  and  _58
REMARK   23  A    between atoms: _61  and  _63
REMARK   24  A    between atoms: _63  and  _64
REMARK   25  A    between atoms: _63  and  _66
REMARK   26  A    between atoms: _66  and  _67
REMARK   27  A    between atoms: _70  and  _72
REMARK   28  A    between atoms: _72  and  _73
REMARK   29  A    between atoms: _72  and  _75
REMARK   30  A    between atoms: _75  and  _76
REMARK   31  A    between atoms: _81  and  _82
REMARK   32  A    between atoms: _84  and  _86
REMARK   33  A    between atoms: _86  and  _87
REMARK   34  A    between atoms: _86  and  _89
REMARK   35  A    between atoms: _89  and  _90
REMARK   36  A    between atoms: _90  and  _91
REMARK   37  A    between atoms: _93  and  _95
REMARK   38  A    between atoms: _95  and  _96
REMARK   39  A    between atoms: _95  and  _98
REMARK   40  A    between atoms: _98  and  _99
REMARK   41  A    between atoms: _99  and  _100
REMARK   42  A    between atoms: _103  and  _105
REMARK   43  A    between atoms: _105  and  _106
REMARK   44  A    between atoms: _105  and  _108
REMARK   45  A    between atoms: _111  and  _113
REMARK   46  A    between atoms: _113  and  _114
REMARK   47  A    between atoms: _116  and  _118
REMARK   48  A    between atoms: _118  and  _119
REMARK   49  A    between atoms: _118  and  _121
REMARK   50  A    between atoms: _124  and  _126
REMARK   51  A    between atoms: _126  and  _127
REMARK   52  A    between atoms: _126  and  _129
REMARK   53  A    between atoms: _129  and  _130
REMARK   54  A    between atoms: _136  and  _138
REMARK   55  A    between atoms: _138  and  _139
REMARK   56  A    between atoms: _138  and  _141
REMARK   57  A    between atoms: _144  and  _146
REMARK   58  A    between atoms: _146  and  _147
REMARK   59  A    between atoms: _146  and  _149
REMARK   60  A    between atoms: _149  and  _150
REMARK   61  A    between atoms: _155  and  _156
REMARK   62  A    between atoms: _158  and  _160
REMARK   63  A    between atoms: _160  and  _161
REMARK   64  A    between atoms: _160  and  _163
REMARK   65  A    between atoms: _163  and  _164
REMARK   66  A    between atoms: _164  and  _165
REMARK   67  A    between atoms: _167  and  _169
REMARK   68  A    between atoms: _169  and  _170
REMARK   69  A    between atoms: _169  and  _172
REMARK   70  A    between atoms: _172  and  _173
REMARK   71  A    between atoms: _173  and  _174
REMARK   72  A    between atoms: _177  and  _179
REMARK   73  A    between atoms: _179  and  _180
REMARK   74  A    between atoms: _179  and  _182
REMARK   75  A    between atoms: _182  and  _183
REMARK   76  A    between atoms: _183  and  _184
REMARK   77  A    between atoms: _187  and  _189
REMARK   78  A    between atoms: _189  and  _190
REMARK   79  A    between atoms: _189  and  _192
REMARK   80  A    between atoms: _192  and  _193
REMARK   81  A    between atoms: _198  and  _199
REMARK   82  A    between atoms: _201  and  _203
REMARK   83  A    between atoms: _203  and  _204
REMARK   84  A    between atoms: _203  and  _206
REMARK   85  A    between atoms: _206  and  _207
REMARK   86  A    between atoms: _207  and  _208
REMARK   87  A    between atoms: _208  and  _209
REMARK   88  A    between atoms: _218  and  _220
REMARK   89  A    between atoms: _220  and  _221
REMARK   90  A    between atoms: _220  and  _223
REMARK   91  A    between atoms: _223  and  _224
REMARK   92  A    between atoms: _224  and  _225
REMARK   93  A    between atoms: _228  and  _230
REMARK   94  A    between atoms: _230  and  _231
REMARK   95  A    between atoms: _230  and  _233
REMARK   96  A    between atoms: _233  and  _234
REMARK   97  A    between atoms: _237  and  _239
REMARK   98  A    between atoms: _239  and  _240
REMARK   99  A    between atoms: _239  and  _242
REMARK  100  A    between atoms: _242  and  _243
REMARK  101  A    between atoms: _243  and  _244
REMARK  102  A    between atoms: _249  and  _251
REMARK  103  A    between atoms: _251  and  _252
REMARK  104  A    between atoms: _251  and  _254
REMARK  105  A    between atoms: _254  and  _255
REMARK  106  A    between atoms: _255  and  _256
REMARK  107  A    between atoms: _256  and  _257
REMARK  108  A    between atoms: _257  and  _258
REMARK  109  A    between atoms: _262  and  _264
REMARK  110  A    between atoms: _264  and  _265
REMARK  111  A    between atoms: _268  and  _270
REMARK  112  A    between atoms: _270  and  _271
REMARK  113  A    between atoms: _273  and  _275
REMARK  114  A    between atoms: _275  and  _276
REMARK  115  A    between atoms: _275  and  _278
REMARK  116  A    between atoms: _278  and  _279
REMARK  117  A    between atoms: _284  and  _286
REMARK  118  A    between atoms: _286  and  _287
REMARK  119  A    between atoms: _286  and  _289
REMARK  120  A    between atoms: _289  and  _290
REMARK  121  A    between atoms: _290  and  _291
REMARK  122  A    between atoms: _294  and  _296
REMARK  123  A    between atoms: _296  and  _297
REMARK  124  A    between atoms: _296  and  _299
REMARK  125  A    between atoms: _299  and  _300
REMARK  126  A    between atoms: _300  and  _301
REMARK  127  A    between atoms: _306  and  _308
REMARK  128  A    between atoms: _308  and  _309
REMARK  129  A    between atoms: _308  and  _311
REMARK  130  A    between atoms: _311  and  _312
REMARK  131  A    between atoms: _314  and  _316
REMARK  132  A    between atoms: _316  and  _317
REMARK  133  A    between atoms: _316  and  _319
REMARK  134  A    between atoms: _319  and  _320
REMARK  135  A    between atoms: _326  and  _328
REMARK  136  A    between atoms: _328  and  _329
REMARK  137  A    between atoms: _328  and  _331
REMARK  138  A    between atoms: _334  and  _336
REMARK  139  A    between atoms: _336  and  _337
REMARK  140  A    between atoms: _336  and  _339
REMARK  141  A    between atoms: _339  and  _340
REMARK  142  A    between atoms: _343  and  _345
REMARK  143  A    between atoms: _345  and  _346
REMARK  144  A    between atoms: _345  and  _348
REMARK  145  A    between atoms: _348  and  _349
REMARK  146  A    between atoms: _352  and  _354
REMARK  147  A    between atoms: _354  and  _355
REMARK  148  A    between atoms: _354  and  _357
REMARK  149  A    between atoms: _357  and  _358
REMARK  150  A    between atoms: _361  and  _363
REMARK  151  A    between atoms: _363  and  _364
REMARK  152  A    between atoms: _363  and  _366
REMARK  153  A    between atoms: _366  and  _367
REMARK  154  A    between atoms: _370  and  _372
REMARK  155  A    between atoms: _372  and  _373
REMARK  156  A    between atoms: _372  and  _375
REMARK  157  A    between atoms: _375  and  _376
REMARK  158  A    between atoms: _381  and  _382
REMARK  159  A    between atoms: _384  and  _386
REMARK  160  A    between atoms: _386  and  _387
REMARK  161  A    between atoms: _386  and  _389
REMARK  162  A    between atoms: _389  and  _390
REMARK  163  A    between atoms: _395  and  _396
REMARK  164  A    between atoms: _398  and  _400
REMARK  165  A    between atoms: _400  and  _401
REMARK  166  A    between atoms: _400  and  _403
REMARK  167  A    between atoms: _403  and  _404
REMARK  168  A    between atoms: _407  and  _409
REMARK  169  A    between atoms: _409  and  _410
REMARK  170  A    between atoms: _409  and  _412
REMARK  171  A    between atoms: _412  and  _413
REMARK  172  A    between atoms: _416  and  _418
REMARK  173  A    between atoms: _418  and  _419
REMARK  174  A    between atoms: _418  and  _421
REMARK  175  A    between atoms: _421  and  _422
REMARK  176  A    between atoms: _422  and  _423
REMARK  177  A    between atoms: _428  and  _430
REMARK  178  A    between atoms: _430  and  _431
REMARK  179  A    between atoms: _430  and  _433
REMARK  180  A    between atoms: _436  and  _438
REMARK  181  A    between atoms: _438  and  _439
REMARK  182  A    between atoms: _438  and  _441
REMARK  183  A    between atoms: _441  and  _442
REMARK  184  A    between atoms: _445  and  _447
REMARK  185  A    between atoms: _447  and  _448
REMARK  186  A    between atoms: _447  and  _450
REMARK  187  A    between atoms: _450  and  _451
REMARK  188  A    between atoms: _453  and  _455
REMARK  189  A    between atoms: _455  and  _456
REMARK  190  A    between atoms: _458  and  _460
REMARK  191  A    between atoms: _460  and  _461
REMARK  192  A    between atoms: _460  and  _463
REMARK  193  A    between atoms: _463  and  _464
REMARK  194  A    between atoms: _464  and  _759
REMARK  195  A    between atoms: _465  and  _467
REMARK  196  A    between atoms: _467  and  _468
REMARK  197  A    between atoms: _467  and  _470
REMARK  198  A    between atoms: _470  and  _471
REMARK  199  A    between atoms: _476  and  _477
REMARK  200  A    between atoms: _479  and  _481
REMARK  201  A    between atoms: _481  and  _482
REMARK  202  A    between atoms: _481  and  _484
REMARK  203  A    between atoms: _484  and  _485
REMARK  204  A    between atoms: _485  and  _486
REMARK  205  A    between atoms: _491  and  _493
REMARK  206  A    between atoms: _493  and  _494
REMARK  207  A    between atoms: _493  and  _496
REMARK  208  A    between atoms: _496  and  _497
REMARK  209  A    between atoms: _497  and  _498
REMARK  210  A    between atoms: _503  and  _505
REMARK  211  A    between atoms: _505  and  _506
REMARK  212  A    between atoms: _505  and  _508
REMARK  213  A    between atoms: _508  and  _509
REMARK  214  A    between atoms: _514  and  _515
REMARK  215  A    between atoms: _517  and  _519
REMARK  216  A    between atoms: _519  and  _520
REMARK  217  A    between atoms: _523  and  _525
REMARK  218  A    between atoms: _525  and  _526
REMARK  219  A    between atoms: _525  and  _528
REMARK  220  A    between atoms: _528  and  _529
REMARK  221  A    between atoms: _534  and  _535
REMARK  222  A    between atoms: _537  and  _539
REMARK  223  A    between atoms: _539  and  _540
REMARK  224  A    between atoms: _539  and  _542
REMARK  225  A    between atoms: _542  and  _543
REMARK  226  A    between atoms: _548  and  _549
REMARK  227  A    between atoms: _551  and  _553
REMARK  228  A    between atoms: _553  and  _554
REMARK  229  A    between atoms: _553  and  _556
REMARK  230  A    between atoms: _556  and  _557
REMARK  231  A    between atoms: _560  and  _562
REMARK  232  A    between atoms: _562  and  _563
REMARK  233  A    between atoms: _562  and  _565
REMARK  234  A    between atoms: _565  and  _566
REMARK  235  A    between atoms: _576  and  _578
REMARK  236  A    between atoms: _578  and  _579
REMARK  237  A    between atoms: _582  and  _584
REMARK  238  A    between atoms: _584  and  _585
REMARK  239  A    between atoms: _588  and  _590
REMARK  240  A    between atoms: _590  and  _591
REMARK  241  A    between atoms: _590  and  _593
REMARK  242  A    between atoms: _593  and  _594
REMARK  243  A    between atoms: _597  and  _599
REMARK  244  A    between atoms: _599  and  _600
REMARK  245  A    between atoms: _599  and  _602
REMARK  246  A    between atoms: _602  and  _603
REMARK  247  A    between atoms: _606  and  _608
REMARK  248  A    between atoms: _608  and  _609
REMARK  249  A    between atoms: _608  and  _611
REMARK  250  A    between atoms: _611  and  _612
REMARK  251  A    between atoms: _615  and  _617
REMARK  252  A    between atoms: _617  and  _618
REMARK  253  A    between atoms: _617  and  _620
REMARK  254  A    between atoms: _620  and  _621
REMARK  255  A    between atoms: _621  and  _622
REMARK  256  A    between atoms: _622  and  _623
REMARK  257  A    between atoms: _623  and  _624
REMARK  258  A    between atoms: _628  and  _630
REMARK  259  A    between atoms: _630  and  _631
REMARK  260  A    between atoms: _630  and  _633
REMARK  261  A    between atoms: _633  and  _634
REMARK  262  A    between atoms: _639  and  _641
REMARK  263  A    between atoms: _641  and  _642
REMARK  264  A    between atoms: _641  and  _644
REMARK  265  A    between atoms: _644  and  _645
REMARK  266  A    between atoms: _645  and  _646
REMARK  267  A    between atoms: _646  and  _647
REMARK  268  A    between atoms: _647  and  _648
REMARK  269  A    between atoms: _652  and  _654
REMARK  270  A    between atoms: _654  and  _655
REMARK  271  A    between atoms: _654  and  _657
REMARK  272  A    between atoms: _657  and  _658
REMARK  273  A    between atoms: _668  and  _670
REMARK  274  A    between atoms: _670  and  _671
REMARK  275  A    between atoms: _674  and  _676
REMARK  276  A    between atoms: _676  and  _677
REMARK  277  A    between atoms: _679  and  _681
REMARK  278  A    between atoms: _681  and  _682
REMARK  279  A    between atoms: _681  and  _684
REMARK  280  A    between atoms: _684  and  _685
REMARK  281  A    between atoms: _685  and  _686
REMARK  282  A    between atoms: _689  and  _691
REMARK  283  A    between atoms: _691  and  _692
REMARK  284  A    between atoms: _695  and  _697
REMARK  285  A    between atoms: _697  and  _698
REMARK  286  A    between atoms: _697  and  _700
REMARK  287  A    between atoms: _700  and  _701
REMARK  288  A    between atoms: _701  and  _702
REMARK  289  A    between atoms: _702  and  _703
REMARK  290  A    between atoms: _712  and  _714
REMARK  291  A    between atoms: _714  and  _715
REMARK  292  A    between atoms: _714  and  _717
REMARK  293  A    between atoms: _717  and  _718
REMARK  294  A    between atoms: _721  and  _723
REMARK  295  A    between atoms: _723  and  _724
REMARK  296  A    between atoms: _723  and  _726
REMARK  297  A    between atoms: _726  and  _727
REMARK  298  A    between atoms: _732  and  _733
REMARK  299  A    between atoms: _735  and  _737
REMARK  300  A    between atoms: _737  and  _738
REMARK  301  A    between atoms: _737  and  _740
REMARK  302  A    between atoms: _740  and  _741
REMARK  303  A    between atoms: _744  and  _746
REMARK  304  A    between atoms: _746  and  _747
REMARK  305  A    between atoms: _746  and  _749
REMARK  306  A    between atoms: _749  and  _750
REMARK  307  A    between atoms: _753  and  _755
REMARK  308  A    between atoms: _755  and  _756
REMARK  309  A    between atoms: _755  and  _758
REMARK  310  A    between atoms: _758  and  _759
REMARK  311  A    between atoms: _760  and  _762
REMARK  312  A    between atoms: _762  and  _763
REMARK  313  A    between atoms: _762  and  _765
REMARK  314  A    between atoms: _768  and  _770
REMARK  315  A    between atoms: _770  and  _771
REMARK  316  A    between atoms: _770  and  _773
REMARK  317  A    between atoms: _773  and  _774
REMARK  318  A    between atoms: _774  and  _775
REMARK  319  A    between atoms: _778  and  _780
REMARK  320  A    between atoms: _780  and  _781
REMARK  321  A    between atoms: _780  and  _783
REMARK  322  A    between atoms: _783  and  _784
REMARK  323  A    between atoms: _794  and  _796
REMARK  324  A    between atoms: _796  and  _797
REMARK  325  A    between atoms: _796  and  _799
REMARK  326  A    between atoms: _799  and  _800
REMARK  327  A    between atoms: _803  and  _805
REMARK  328  A    between atoms: _805  and  _806
REMARK  329  A    between atoms: _805  and  _808
REMARK  330  A    between atoms: _808  and  _809
REMARK  331  A    between atoms: _809  and  _810
REMARK  332  A    between atoms: _810  and  _811
REMARK  333  A    between atoms: _820  and  _822
REMARK  334  A    between atoms: _822  and  _823
REMARK  335  A    between atoms: _822  and  _825
REMARK  336  A    between atoms: _825  and  _826
REMARK  337  A    between atoms: _831  and  _832
REMARK                            x       y       z     vdW  Elec       q    Type
REMARK                         _______ _______ _______ _____ _____    ______ ____
ROOT
ATOM      1  C   THR A   1      53.786  36.900 -16.900  0.00  0.00    +0.241 C 
ATOM      2  N   LEU A   2      52.776  36.322 -16.253  0.00  0.00    -0.298 N 
ATOM      3  H   LEU A   2      52.838  36.183 -15.224  0.00  0.00    +0.150 HD
ATOM      4  O   THR A   1      53.741  37.167 -18.100  0.00  0.00    -0.274 OA
ENDROOT
BRANCH   1   5
ATOM      5  CA  THR A   1      55.031  37.259 -16.079  0.00  0.00    +0.172 C 
BRANCH   5   6
ATOM      6  N   THR A   1      54.691  38.005 -14.868  0.00  0.00    -0.236 NA
ATOM      7  H   THR A   1      55.061  37.674 -13.954  0.00  0.00    +0.142 HD
ENDBRANCH   5   6
BRANCH   5   8
ATOM      8  CB  THR A   1      55.819  35.977 -15.746  0.00  0.00    +0.135 C 
ATOM      9  CG2 THR A   1      56.273  35.267 -17.007  0.00  0.00    +0.034 C 
BRANCH   8  10
ATOM     10  OG1 THR A   1      56.974  36.310 -14.973  0.00  0.00    -0.383 OA
ATOM     11  HG1 THR A   1      57.477  35.484 -14.761  0.00  0.00    +0.210 HD
ENDBRANCH   8  10
ENDBRANCH   5   8
ENDBRANCH   1   5
BRANCH   2  12
ATOM     12  CA  LEU A   2      51.579  35.879 -16.972  0.00  0.00    +0.137 C 
BRANCH  12  13
ATOM     13  C   LEU A   2      50.761  37.031 -17.575  0.00  0.00    +0.227 C 
ATOM     14  O   LEU A   2      50.073  36.831 -18.576  0.00  0.00    -0.286 OA
ENDBRANCH  12  13
BRANCH  12  15
ATOM     15  CB  LEU A   2      50.696  34.986 -16.091  0.00  0.00    +0.028 C 
BRANCH  15  16
ATOM     16  CG  LEU A   2      51.286  33.629 -15.661  0.00  0.00    +0.002 C 
ATOM     17  CD2 LEU A   2      50.247  32.791 -14.940  0.00  0.00    +0.000 C 
ATOM     18  CD1 LEU A   2      51.839  32.836 -16.831  0.00  0.00    +0.000 C 
ENDBRANCH  15  16
ENDBRANCH  12  15
ENDBRANCH   2  12
TORSDOF 8
REMARK  Name = ../refined-set-2016/4pg9/4pg9_pocket.pdb
REMARK  337 active torsions:
REMARK  status: ('A' for Active; 'I' for Inactive)
REMARK    1  A    between atoms: _1  and  _3
REMARK    2  A    between atoms: _3  and  _4
REMARK    3  A    between atoms: _3  and  _6
REMARK    4  A    between atoms: _6  and  _7
REMARK    5  A    between atoms: _10  and  _12
REMARK    6  A    between atoms: _12  and  _13
REMARK    7  A    between atoms: _12  and  _15
REMARK    8  A    between atoms: _15  and  _16
REMARK    9  A    between atoms: _16  and  _17
REMARK   10  A    between atoms: _17  and  _18
REMARK   11  A    between atoms: _27  and  _29
REMARK   12  A    between atoms: _29  and  _30
REMARK   13  A    between atoms: _29  and  _32
REMARK   14  A    between atoms: _32  and  _33
REMARK   15  A    between atoms: _38  and  _39
REMARK   16  A    between atoms: _41  and  _43
REMARK   17  A    between atoms: _43  and  _44
REMARK   18  A    between atoms: _43  and  _46
REMARK   19  A    between atoms: _46  and  _47
REMARK   20  A    between atoms: _53  and  _55
REMARK   21  A    between atoms: _55  and  _56
REMARK   22  A    between atoms: _55  and  _58
REMARK   23  A    between atoms: _61  and  _63
REMARK   24  A    between atoms: _63  and  _64
REMARK   25  A    between atoms: _63  and  _66
REMARK   26  A    between atoms: _66  and  _67
REMARK   27  A    between atoms: _70  and  _72
REMARK   28  A    between atoms: _72  and  _73
REMARK   29  A    between atoms: _72  and  _75
REMARK   30  A    between atoms: _75  and  _76
REMARK   31  A    between atoms: _81  and  _82
REMARK   32  A    between atoms: _84  and  _86
REMARK   33  A    between atoms: _86  and  _87
REMARK   34  A    between atoms: _86  and  _89
REMARK   35  A    between atoms: _89  and  _90
REMARK   36  A    between atoms: _90  and  _91
REMARK   37  A    between atoms: _93  and  _95
REMARK   38  A    between atoms: _95  and  _96
REMARK   39  A    between atoms: _95  and  _98
REMARK   40  A    between atoms: _98  and  _99
REMARK   41  A    between atoms: _99  and  _100
REMARK   42  A    between atoms: _103  and  _105
REMARK   43  A    between atoms: _105  and  _106
REMARK   44  A    between atoms: _105  and  _108
REMARK   45  A    between atoms: _111  and  _113
REMARK   46  A    between atoms: _113  and  _114
REMARK   47  A    between atoms: _116  and  _118
REMARK   48  A    between atoms: _118  and  _119
REMARK   49  A    between atoms: _118  and  _121
REMARK   50  A    between atoms: _124  and  _126
REMARK   51  A    between atoms: _126  and  _127
REMARK   52  A    between atoms: _126  and  _129
REMARK   53  A    between atoms: _129  and  _130
REMARK   54  A    between atoms: _136  and  _138
REMARK   55  A    between atoms: _138  and  _139
REMARK   56  A    between atoms: _138  and  _141
REMARK   57  A    between atoms: _144  and  _146
REMARK   58  A    between atoms: _146  and  _147
REMARK   59  A    between atoms: _146  and  _149
REMARK   60  A    between atoms: _149  and  _150
REMARK   61  A    between atoms: _155  and  _156
REMARK   62  A    between atoms: _158  and  _160
REMARK   63  A    between atoms: _160  and  _161
REMARK   64  A    between atoms: _160  and  _163
REMARK   65  A    between atoms: _163  and  _164
REMARK   66  A    between atoms: _164  and  _165
REMARK   67  A    between atoms: _167  and  _169
REMARK   68  A    between atoms: _169  and  _170
REMARK   69  A    between atoms: _169  and  _172
REMARK   70  A    between atoms: _172  and  _173
REMARK   71  A    between atoms: _173  and  _174
REMARK   72  A    between atoms: _177  and  _179
REMARK   73  A    between atoms: _179  and  _180
REMARK   74  A    between atoms: _179  and  _182
REMARK   75  A    between atoms: _182  and  _183
REMARK   76  A    between atoms: _183  and  _184
REMARK   77  A    between atoms: _187  and  _189
REMARK   78  A    between atoms: _189  and  _190
REMARK   79  A    between atoms: _189  and  _192
REMARK   80  A    between atoms: _192  and  _193
REMARK   81  A    between atoms: _198  and  _199
REMARK   82  A    between atoms: _201  and  _203
REMARK   83  A    between atoms: _203  and  _204
REMARK   84  A    between atoms: _203  and  _206
REMARK   85  A    between atoms: _206  and  _207
REMARK   86  A    between atoms: _207  and  _208
REMARK   87  A    between atoms: _208  and  _209
REMARK   88  A    between atoms: _218  and  _220
REMARK   89  A    between atoms: _220  and  _221
REMARK   90  A    between atoms: _220  and  _223
REMARK   91  A    between atoms: _223  and  _224
REMARK   92  A    between atoms: _224  and  _225
REMARK   93  A    between atoms: _228  and  _230
REMARK   94  A    between atoms: _230  and  _231
REMARK   95  A    between atoms: _230  and  _233
REMARK   96  A    between atoms: _233  and  _234
REMARK   97  A    between atoms: _237  and  _239
REMARK   98  A    between atoms: _239  and  _240
REMARK   99  A    between atoms: _239  and  _242
REMARK  100  A    between atoms: _242  and  _243
REMARK  101  A    between atoms: _243  and  _244
REMARK  102  A    between atoms: _249  and  _251
REMARK  103  A    between atoms: _251  and  _252
REMARK  104  A    between atoms: _251  and  _254
REMARK  105  A    between atoms: _254  and  _255
REMARK  106  A    between atoms: _255  and  _256
REMARK  107  A    between atoms: _256  and  _257
REMARK  108  A    between atoms: _257  and  _258
REMARK  109  A    between atoms: _262  and  _264
REMARK  110  A    between atoms: _264  and  _265
REMARK  111  A    between atoms: _268  and  _270
REMARK  112  A    between atoms: _270  and  _271
REMARK  113  A    between atoms: _273  and  _275
REMARK  114  A    between atoms: _275  and  _276
REMARK  115  A    between atoms: _275  and  _278
REMARK  116  A    between atoms: _278  and  _279
REMARK  117  A    between atoms: _284  and  _286
REMARK  118  A    between atoms: _286  and  _287
REMARK  119  A    between atoms: _286  and  _289
REMARK  120  A    between atoms: _289  and  _290
REMARK  121  A    between atoms: _290  and  _291
REMARK  122  A    between atoms: _294  and  _296
REMARK  123  A    between atoms: _296  and  _297
REMARK  124  A    between atoms: _296  and  _299
REMARK  125  A    between atoms: _299  and  _300
REMARK  126  A    between atoms: _300  and  _301
REMARK  127  A    between atoms: _306  and  _308
REMARK  128  A    between atoms: _308  and  _309
REMARK  129  A    between atoms: _308  and  _311
REMARK  130  A    between atoms: _311  and  _312
REMARK  131  A    between atoms: _314  and  _316
REMARK  132  A    between atoms: _316  and  _317
REMARK  133  A    between atoms: _316  and  _319
REMARK  134  A    between atoms: _319  and  _320
REMARK  135  A    between atoms: _326  and  _328
REMARK  136  A    between atoms: _328  and  _329
REMARK  137  A    between atoms: _328  and  _331
REMARK  138  A    between atoms: _334  and  _336
REMARK  139  A    between atoms: _336  and  _337
REMARK  140  A    between atoms: _336  and  _339
REMARK  141  A    between atoms: _339  and  _340
REMARK  142  A    between atoms: _343  and  _345
REMARK  143  A    between atoms: _345  and  _346
REMARK  144  A    between atoms: _345  and  _348
REMARK  145  A    between atoms: _348  and  _349
REMARK  146  A    between atoms: _352  and  _354
REMARK  147  A    between atoms: _354  and  _355
REMARK  148  A    between atoms: _354  and  _357
REMARK  149  A    between atoms: _357  and  _358
REMARK  150  A    between atoms: _361  and  _363
REMARK  151  A    between atoms: _363  and  _364
REMARK  152  A    between atoms: _363  and  _366
REMARK  153  A    between atoms: _366  and  _367
REMARK  154  A    between atoms: _370  and  _372
REMARK  155  A    between atoms: _372  and  _373
REMARK  156  A    between atoms: _372  and  _375
REMARK  157  A    between atoms: _375  and  _376
REMARK  158  A    between atoms: _381  and  _382
REMARK  159  A    between atoms: _384  and  _386
REMARK  160  A    between atoms: _386  and  _387
REMARK  161  A    between atoms: _386  and  _389
REMARK  162  A    between atoms: _389  and  _390
REMARK  163  A    between atoms: _395  and  _396
REMARK  164  A    between atoms: _398  and  _400
REMARK  165  A    between atoms: _400  and  _401
REMARK  166  A    between atoms: _400  and  _403
REMARK  167  A    between atoms: _403  and  _404
REMARK  168  A    between atoms: _407  and  _409
REMARK  169  A    between atoms: _409  and  _410
REMARK  170  A    between atoms: _409  and  _412
REMARK  171  A    between atoms: _412  and  _413
REMARK  172  A    between atoms: _416  and  _418
REMARK  173  A    between atoms: _418  and  _419
REMARK  174  A    between atoms: _418  and  _421
REMARK  175  A    between atoms: _421  and  _422
REMARK  176  A    between atoms: _422  and  _423
REMARK  177  A    between atoms: _428  and  _430
REMARK  178  A    between atoms: _430  and  _431
REMARK  179  A    between atoms: _430  and  _433
REMARK  180  A    between atoms: _436  and  _438
REMARK  181  A    between atoms: _438  and  _439
REMARK  182  A    between atoms: _438  and  _441
REMARK  183  A    between atoms: _441  and  _442
REMARK  184  A    between atoms: _445  and  _447
REMARK  185  A    between atoms: _447  and  _448
REMARK  186  A    between atoms: _447  and  _450
REMARK  187  A    between atoms: _450  and  _451
REMARK  188  A    between atoms: _453  and  _455
REMARK  189  A    between atoms: _455  and  _456
REMARK  190  A    between atoms: _458  and  _460
REMARK  191  A    between atoms: _460  and  _461
REMARK  192  A    between atoms: _460  and  _463
REMARK  193  A    between atoms: _463  and  _464
REMARK  194  A    between atoms: _464  and  _759
REMARK  195  A    between atoms: _465  and  _467
REMARK  196  A    between atoms: _467  and  _468
REMARK  197  A    between atoms: _467  and  _470
REMARK  198  A    between atoms: _470  and  _471
REMARK  199  A    between atoms: _476  and  _477
REMARK  200  A    between atoms: _479  and  _481
REMARK  201  A    between atoms: _481  and  _482
REMARK  202  A    between atoms: _481  and  _484
REMARK  203  A    between atoms: _484  and  _485
REMARK  204  A    between atoms: _485  and  _486
REMARK  205  A    between atoms: _491  and  _493
REMARK  206  A    between atoms: _493  and  _494
REMARK  207  A    between atoms: _493  and  _496
REMARK  208  A    between atoms: _496  and  _497
REMARK  209  A    between atoms: _497  and  _498
REMARK  210  A    between atoms: _503  and  _505
REMARK  211  A    between atoms: _505  and  _506
REMARK  212  A    between atoms: _505  and  _508
REMARK  213  A    between atoms: _508  and  _509
REMARK  214  A    between atoms: _514  and  _515
REMARK  215  A    between atoms: _517  and  _519
REMARK  216  A    between atoms: _519  and  _520
REMARK  217  A    between atoms: _523  and  _525
REMARK  218  A    between atoms: _525  and  _526
REMARK  219  A    between atoms: _525  and  _528
REMARK  220  A    between atoms: _528  and  _529
REMARK  221  A    between atoms: _534  and  _535
REMARK  222  A    between atoms: _537  and  _539
REMARK  223  A    between atoms: _539  and  _540
REMARK  224  A    between atoms: _539  and  _542
REMARK  225  A    between atoms: _542  and  _543
REMARK  226  A    between atoms: _548  and  _549
REMARK  227  A    between atoms: _551  and  _553
REMARK  228  A    between atoms: _553  and  _554
REMARK  229  A    between atoms: _553  and  _556
REMARK  230  A    between atoms: _556  and  _557
REMARK  231  A    between atoms: _560  and  _562
REMARK  232  A    between atoms: _562  and  _563
REMARK  233  A    between atoms: _562  and  _565
REMARK  234  A    between atoms: _565  and  _566
REMARK  235  A    between atoms: _576  and  _578
REMARK  236  A    between atoms: _578  and  _579
REMARK  237  A    between atoms: _582  and  _584
REMARK  238  A    between atoms: _584  and  _585
REMARK  239  A    between atoms: _588  and  _590
REMARK  240  A    between atoms: _590  and  _591
REMARK  241  A    between atoms: _590  and  _593
REMARK  242  A    between atoms: _593  and  _594
REMARK  243  A    between atoms: _597  and  _599
REMARK  244  A    between atoms: _599  and  _600
REMARK  245  A    between atoms: _599  and  _602
REMARK  246  A    between atoms: _602  and  _603
REMARK  247  A    between atoms: _606  and  _608
REMARK  248  A    between atoms: _608  and  _609
REMARK  249  A    between atoms: _608  and  _611
REMARK  250  A    between atoms: _611  and  _612
REMARK  251  A    between atoms: _615  and  _617
REMARK  252  A    between atoms: _617  and  _618
REMARK  253  A    between atoms: _617  and  _620
REMARK  254  A    between atoms: _620  and  _621
REMARK  255  A    between atoms: _621  and  _622
REMARK  256  A    between atoms: _622  and  _623
REMARK  257  A    between atoms: _623  and  _624
REMARK  258  A    between atoms: _628  and  _630
REMARK  259  A    between atoms: _630  and  _631
REMARK  260  A    between atoms: _630  and  _633
REMARK  261  A    between atoms: _633  and  _634
REMARK  262  A    between atoms: _639  and  _641
REMARK  263  A    between atoms: _641  and  _642
REMARK  264  A    between atoms: _641  and  _644
REMARK  265  A    between atoms: _644  and  _645
REMARK  266  A    between atoms: _645  and  _646
REMARK  267  A    between atoms: _646  and  _647
REMARK  268  A    between atoms: _647  and  _648
REMARK  269  A    between atoms: _652  and  _654
REMARK  270  A    between atoms: _654  and  _655
REMARK  271  A    between atoms: _654  and  _657
REMARK  272  A    between atoms: _657  and  _658
REMARK  273  A    between atoms: _668  and  _670
REMARK  274  A    between atoms: _670  and  _671
REMARK  275  A    between atoms: _674  and  _676
REMARK  276  A    between atoms: _676  and  _677
REMARK  277  A    between atoms: _679  and  _681
REMARK  278  A    between atoms: _681  and  _682
REMARK  279  A    between atoms: _681  and  _684
REMARK  280  A    between atoms: _684  and  _685
REMARK  281  A    between atoms: _685  and  _686
REMARK  282  A    between atoms: _689  and  _691
REMARK  283  A    between atoms: _691  and  _692
REMARK  284  A    between atoms: _695  and  _697
REMARK  285  A    between atoms: _697  and  _698
REMARK  286  A    between atoms: _697  and  _700
REMARK  287  A    between atoms: _700  and  _701
REMARK  288  A    between atoms: _701  and  _702
REMARK  289  A    between atoms: _702  and  _703
REMARK  290  A    between atoms: _712  and  _714
REMARK  291  A    between atoms: _714  and  _715
REMARK  292  A    between atoms: _714  and  _717
REMARK  293  A    between atoms: _717  and  _718
REMARK  294  A    between atoms: _721  and  _723
REMARK  295  A    between atoms: _723  and  _724
REMARK  296  A    between atoms: _723  and  _726
REMARK  297  A    between atoms: _726  and  _727
REMARK  298  A    between atoms: _732  and  _733
REMARK  299  A    between atoms: _735  and  _737
REMARK  300  A    between atoms: _737  and  _738
REMARK  301  A    between atoms: _737  and  _740
REMARK  302  A    between atoms: _740  and  _741
REMARK  303  A    between atoms: _744  and  _746
REMARK  304  A    between atoms: _746  and  _747
REMARK  305  A    between atoms: _746  and  _749
REMARK  306  A    between atoms: _749  and  _750
REMARK  307  A    between atoms: _753  and  _755
REMARK  308  A    between atoms: _755  and  _756
REMARK  309  A    between atoms: _755  and  _758
REMARK  310  A    between atoms: _758  and  _759
REMARK  311  A    between atoms: _760  and  _762
REMARK  312  A    between atoms: _762  and  _763
REMARK  313  A    between atoms: _762  and  _765
REMARK  314  A    between atoms: _768  and  _770
REMARK  315  A    between atoms: _770  and  _771
REMARK  316  A    between atoms: _770  and  _773
REMARK  317  A    between atoms: _773  and  _774
REMARK  318  A    between atoms: _774  and  _775
REMARK  319  A    between atoms: _778  and  _780
REMARK  320  A    between atoms: _780  and  _781
REMARK  321  A    between atoms: _780  and  _783
REMARK  322  A    between atoms: _783  and  _784
REMARK  323  A    between atoms: _794  and  _796
REMARK  324  A    between atoms: _796  and  _797
REMARK  325  A    between atoms: _796  and  _799
REMARK  326  A    between atoms: _799  and  _800
REMARK  327  A    between atoms: _803  and  _805
REMARK  328  A    between atoms: _805  and  _806
REMARK  329  A    between atoms: _805  and  _808
REMARK  330  A    between atoms: _808  and  _809
REMARK  331  A    between atoms: _809  and  _810
REMARK  332  A    between atoms: _810  and  _811
REMARK  333  A    between atoms: _820  and  _822
REMARK  334  A    between atoms: _822  and  _823
REMARK  335  A    between atoms: _822  and  _825
REMARK  336  A    between atoms: _825  and  _826
REMARK  337  A    between atoms: _831  and  _832
REMARK                            x       y       z     vdW  Elec       q    Type
REMARK                         _______ _______ _______ _____ _____    ______ ____
ROOT
ATOM      1  C   TYR A   1      50.740  36.070 -22.320  0.00  0.00    +0.239 C 
ATOM      2  N   TYR A   2      49.786  36.507 -21.500  0.00  0.00    -0.298 N 
ATOM      3  H   TYR A   2      50.044  36.774 -20.529  0.00  0.00    +0.150 HD
ATOM      4  O   TYR A   1      50.533  35.760 -23.489  0.00  0.00    -0.274 OA
ENDROOT
BRANCH   1   5
ATOM      5  CA  TYR A   1      52.144  35.946 -21.727  0.00  0.00    +0.149 C 
BRANCH   5   6
ATOM      6  N   TYR A   1      52.507  37.103 -20.894  0.00  0.00    -0.238 NA
ATOM      7  H   TYR A   1      52.828  36.941 -19.918  0.00  0.00    +0.142 HD
ENDBRANCH   5   6
BRANCH   5   8
ATOM      8  CB  TYR A   1      52.194  34.633 -20.934  0.00  0.00    +0.053 C 
BRANCH   8   9
ATOM      9  CG  TYR A   1      53.555  34.139 -20.468  0.00  0.00    -0.020 A 
ATOM     10  CD2 TYR A   1      53.635  33.009 -19.663  0.00  0.00    -0.001 A 
ATOM     11  CE2 TYR A   1      54.845  32.515 -19.220  0.00  0.00    +0.036 A 
ATOM     12  CZ  TYR A   1      56.017  33.138 -19.589  0.00  0.00    +0.134 A 
ATOM     13  CE1 TYR A   1      55.976  34.274 -20.402  0.00  0.00    +0.036 A 
ATOM     14  CD1 TYR A   1      54.751  34.761 -20.845  0.00  0.00    -0.001 A 
BRANCH  12  15
ATOM     15  OH  TYR A   1      57.209  32.614 -19.125  0.00  0.00    -0.506 OA
ATOM     16  HH  TYR A   1      57.212  32.629 -18.135  0.00  0.00    +0.292 HD
ENDBRANCH  12  15
ENDBRANCH   8   9
ENDBRANCH   5   8
ENDBRANCH   1   5
BRANCH   2  17
ATOM     17  CA  TYR A   2      48.387  36.625 -21.916  0.00  0.00    +0.141 C 
BRANCH  17  18
ATOM     18  C   TYR A   2      47.973  38.043 -22.353  0.00  0.00    +0.227 C 
ATOM     19  O   TYR A   2      46.798  38.273 -22.631  0.00  0.00    -0.286 OA
ENDBRANCH  17  18
BRANCH  17  20
ATOM     20  CB  TYR A   2      47.462  36.151 -20.784  0.00  0.00    +0.054 C 
BRANCH  20  21
ATOM     21  CG  TYR A   2      47.557  34.674 -20.478  0.00  0.00    -0.020 A 
ATOM     22  CD2 TYR A   2      48.238  34.220 -19.352  0.00  0.00    -0.001 A 
ATOM     23  CE2 TYR A   2      48.324  32.870 -19.060  0.00  0.00    +0.036 A 
ATOM     24  CZ  TYR A   2      47.724  31.948 -19.893  0.00  0.00    +0.134 A 
ATOM     25  CE1 TYR A   2      47.034  32.369 -21.021  0.00  0.00    +0.036 A 
ATOM     26  CD1 TYR A   2      46.951  33.727 -21.304  0.00  0.00    -0.001 A 
BRANCH  24  27
ATOM     27  OH  TYR A   2      47.817  30.608 -19.585  0.00  0.00    -0.506 OA
ATOM     28  HH  TYR A   2      47.340  30.079 -20.272  0.00  0.00    +0.292 HD
ENDBRANCH  24  27
ENDBRANCH  20  21
ENDBRANCH  17  20
ENDBRANCH   2  17
TORSDOF 10
REMARK  Name = ../refined-set-2016/4pg9/4pg9_pocket.pdb
REMARK  337 active torsions:
REMARK  status: ('A' for Active; 'I' for Inactive)
REMARK    1  A    between atoms: _1  and  _3
REMARK    2  A    between atoms: _3  and  _4
REMARK    3  A    between atoms: _3  and  _6
REMARK    4  A    between atoms: _6  and  _7
REMARK    5  A    between atoms: _10  and  _12
REMARK    6  A    between atoms: _12  and  _13
REMARK    7  A    between atoms: _12  and  _15
REMARK    8  A    between atoms: _15  and  _16
REMARK    9  A    between atoms: _16  and  _17
REMARK   10  A    between atoms: _17  and  _18
REMARK   11  A    between atoms: _27  and  _29
REMARK   12  A    between atoms: _29  and  _30
REMARK   13  A    between atoms: _29  and  _32
REMARK   14  A    between atoms: _32  and  _33
REMARK   15  A    between atoms: _38  and  _39
REMARK   16  A    between atoms: _41  and  _43
REMARK   17  A    between atoms: _43  and  _44
REMARK   18  A    between atoms: _43  and  _46
REMARK   19  A    between atoms: _46  and  _47
REMARK   20  A    between atoms: _53  and  _55
REMARK   21  A    between atoms: _55  and  _56
REMARK   22  A    between atoms: _55  and  _58
REMARK   23  A    between atoms: _61  and  _63
REMARK   24  A    between atoms: _63  and  _64
REMARK   25  A    between atoms: _63  and  _66
REMARK   26  A    between atoms: _66  and  _67
REMARK   27  A    between atoms: _70  and  _72
REMARK   28  A    between atoms: _72  and  _73
REMARK   29  A    between atoms: _72  and  _75
REMARK   30  A    between atoms: _75  and  _76
REMARK   31  A    between atoms: _81  and  _82
REMARK   32  A    between atoms: _84  and  _86
REMARK   33  A    between atoms: _86  and  _87
REMARK   34  A    between atoms: _86  and  _89
REMARK   35  A    between atoms: _89  and  _90
REMARK   36  A    between atoms: _90  and  _91
REMARK   37  A    between atoms: _93  and  _95
REMARK   38  A    between atoms: _95  and  _96
REMARK   39  A    between atoms: _95  and  _98
REMARK   40  A    between atoms: _98  and  _99
REMARK   41  A    between atoms: _99  and  _100
REMARK   42  A    between atoms: _103  and  _105
REMARK   43  A    between atoms: _105  and  _106
REMARK   44  A    between atoms: _105  and  _108
REMARK   45  A    between atoms: _111  and  _113
REMARK   46  A    between atoms: _113  and  _114
REMARK   47  A    between atoms: _116  and  _118
REMARK   48  A    between atoms: _118  and  _119
REMARK   49  A    between atoms: _118  and  _121
REMARK   50  A    between atoms: _124  and  _126
REMARK   51  A    between atoms: _126  and  _127
REMARK   52  A    between atoms: _126  and  _129
REMARK   53  A    between atoms: _129  and  _130
REMARK   54  A    between atoms: _136  and  _138
REMARK   55  A    between atoms: _138  and  _139
REMARK   56  A    between atoms: _138  and  _141
REMARK   57  A    between atoms: _144  and  _146
REMARK   58  A    between atoms: _146  and  _147
REMARK   59  A    between atoms: _146  and  _149
REMARK   60  A    between atoms: _149  and  _150
REMARK   61  A    between atoms: _155  and  _156
REMARK   62  A    between atoms: _158  and  _160
REMARK   63  A    between atoms: _160  and  _161
REMARK   64  A    between atoms: _160  and  _163
REMARK   65  A    between atoms: _163  and  _164
REMARK   66  A    between atoms: _164  and  _165
REMARK   67  A    between atoms: _167  and  _169
REMARK   68  A    between atoms: _169  and  _170
REMARK   69  A    between atoms: _169  and  _172
REMARK   70  A    between atoms: _172  and  _173
REMARK   71  A    between atoms: _173  and  _174
REMARK   72  A    between atoms: _177  and  _179
REMARK   73  A    between atoms: _179  and  _180
REMARK   74  A    between atoms: _179  and  _182
REMARK   75  A    between atoms: _182  and  _183
REMARK   76  A    between atoms: _183  and  _184
REMARK   77  A    between atoms: _187  and  _189
REMARK   78  A    between atoms: _189  and  _190
REMARK   79  A    between atoms: _189  and  _192
REMARK   80  A    between atoms: _192  and  _193
REMARK   81  A    between atoms: _198  and  _199
REMARK   82  A    between atoms: _201  and  _203
REMARK   83  A    between atoms: _203  and  _204
REMARK   84  A    between atoms: _203  and  _206
REMARK   85  A    between atoms: _206  and  _207
REMARK   86  A    between atoms: _207  and  _208
REMARK   87  A    between atoms: _208  and  _209
REMARK   88  A    between atoms: _218  and  _220
REMARK   89  A    between atoms: _220  and  _221
REMARK   90  A    between atoms: _220  and  _223
REMARK   91  A    between atoms: _223  and  _224
REMARK   92  A    between atoms: _224  and  _225
REMARK   93  A    between atoms: _228  and  _230
REMARK   94  A    between atoms: _230  and  _231
REMARK   95  A    between atoms: _230  and  _233
REMARK   96  A    between atoms: _233  and  _234
REMARK   97  A    between atoms: _237  and  _239
REMARK   98  A    between atoms: _239  and  _240
REMARK   99  A    between atoms: _239  and  _242
REMARK  100  A    between atoms: _242  and  _243
REMARK  101  A    between atoms: _243  and  _244
REMARK  102  A    between atoms: _249  and  _251
REMARK  103  A    between atoms: _251  and  _252
REMARK  104  A    between atoms: _251  and  _254
REMARK  105  A    between atoms: _254  and  _255
REMARK  106  A    between atoms: _255  and  _256
REMARK  107  A    between atoms: _256  and  _257
REMARK  108  A    between atoms: _257  and  _258
REMARK  109  A    between atoms: _262  and  _264
REMARK  110  A    between atoms: _264  and  _265
REMARK  111  A    between atoms: _268  and  _270
REMARK  112  A    between atoms: _270  and  _271
REMARK  113  A    between atoms: _273  and  _275
REMARK  114  A    between atoms: _275  and  _276
REMARK  115  A    between atoms: _275  and  _278
REMARK  116  A    between atoms: _278  and  _279
REMARK  117  A    between atoms: _284  and  _286
REMARK  118  A    between atoms: _286  and  _287
REMARK  119  A    between atoms: _286  and  _289
REMARK  120  A    between atoms: _289  and  _290
REMARK  121  A    between atoms: _290  and  _291
REMARK  122  A    between atoms: _294  and  _296
REMARK  123  A    between atoms: _296  and  _297
REMARK  124  A    between atoms: _296  and  _299
REMARK  125  A    between atoms: _299  and  _300
REMARK  126  A    between atoms: _300  and  _301
REMARK  127  A    between atoms: _306  and  _308
REMARK  128  A    between atoms: _308  and  _309
REMARK  129  A    between atoms: _308  and  _311
REMARK  130  A    between atoms: _311  and  _312
REMARK  131  A    between atoms: _314  and  _316
REMARK  132  A    between atoms: _316  and  _317
REMARK  133  A    between atoms: _316  and  _319
REMARK  134  A    between atoms: _319  and  _320
REMARK  135  A    between atoms: _326  and  _328
REMARK  136  A    between atoms: _328  and  _329
REMARK  137  A    between atoms: _328  and  _331
REMARK  138  A    between atoms: _334  and  _336
REMARK  139  A    between atoms: _336  and  _337
REMARK  140  A    between atoms: _336  and  _339
REMARK  141  A    between atoms: _339  and  _340
REMARK  142  A    between atoms: _343  and  _345
REMARK  143  A    between atoms: _345  and  _346
REMARK  144  A    between atoms: _345  and  _348
REMARK  145  A    between atoms: _348  and  _349
REMARK  146  A    between atoms: _352  and  _354
REMARK  147  A    between atoms: _354  and  _355
REMARK  148  A    between atoms: _354  and  _357
REMARK  149  A    between atoms: _357  and  _358
REMARK  150  A    between atoms: _361  and  _363
REMARK  151  A    between atoms: _363  and  _364
REMARK  152  A    between atoms: _363  and  _366
REMARK  153  A    between atoms: _366  and  _367
REMARK  154  A    between atoms: _370  and  _372
REMARK  155  A    between atoms: _372  and  _373
REMARK  156  A    between atoms: _372  and  _375
REMARK  157  A    between atoms: _375  and  _376
REMARK  158  A    between atoms: _381  and  _382
REMARK  159  A    between atoms: _384  and  _386
REMARK  160  A    between atoms: _386  and  _387
REMARK  161  A    between atoms: _386  and  _389
REMARK  162  A    between atoms: _389  and  _390
REMARK  163  A    between atoms: _395  and  _396
REMARK  164  A    between atoms: _398  and  _400
REMARK  165  A    between atoms: _400  and  _401
REMARK  166  A    between atoms: _400  and  _403
REMARK  167  A    between atoms: _403  and  _404
REMARK  168  A    between atoms: _407  and  _409
REMARK  169  A    between atoms: _409  and  _410
REMARK  170  A    between atoms: _409  and  _412
REMARK  171  A    between atoms: _412  and  _413
REMARK  172  A    between atoms: _416  and  _418
REMARK  173  A    between atoms: _418  and  _419
REMARK  174  A    between atoms: _418  and  _421
REMARK  175  A    between atoms: _421  and  _422
REMARK  176  A    between atoms: _422  and  _423
REMARK  177  A    between atoms: _428  and  _430
REMARK  178  A    between atoms: _430  and  _431
REMARK  179  A    between atoms: _430  and  _433
REMARK  180  A    between atoms: _436  and  _438
REMARK  181  A    between atoms: _438  and  _439
REMARK  182  A    between atoms: _438  and  _441
REMARK  183  A    between atoms: _441  and  _442
REMARK  184  A    between atoms: _445  and  _447
REMARK  185  A    between atoms: _447  and  _448
REMARK  186  A    between atoms: _447  and  _450
REMARK  187  A    between atoms: _450  and  _451
REMARK  188  A    between atoms: _453  and  _455
REMARK  189  A    between atoms: _455  and  _456
REMARK  190  A    between atoms: _458  and  _460
REMARK  191  A    between atoms: _460  and  _461
REMARK  192  A    between atoms: _460  and  _463
REMARK  193  A    between atoms: _463  and  _464
REMARK  194  A    between atoms: _464  and  _759
REMARK  195  A    between atoms: _465  and  _467
REMARK  196  A    between atoms: _467  and  _468
REMARK  197  A    between atoms: _467  and  _470
REMARK  198  A    between atoms: _470  and  _471
REMARK  199  A    between atoms: _476  and  _477
REMARK  200  A    between atoms: _479  and  _481
REMARK  201  A    between atoms: _481  and  _482
REMARK  202  A    between atoms: _481  and  _484
REMARK  203  A    between atoms: _484  and  _485
REMARK  204  A    between atoms: _485  and  _486
REMARK  205  A    between atoms: _491  and  _493
REMARK  206  A    between atoms: _493  and  _494
REMARK  207  A    between atoms: _493  and  _496
REMARK  208  A    between atoms: _496  and  _497
REMARK  209  A    between atoms: _497  and  _498
REMARK  210  A    between atoms: _503  and  _505
REMARK  211  A    between atoms: _505  and  _506
REMARK  212  A    between atoms: _505  and  _508
REMARK  213  A    between atoms: _508  and  _509
REMARK  214  A    between atoms: _514  and  _515
REMARK  215  A    between atoms: _517  and  _519
REMARK  216  A    between atoms: _519  and  _520
REMARK  217  A    between atoms: _523  and  _525
REMARK  218  A    between atoms: _525  and  _526
REMARK  219  A    between atoms: _525  and  _528
REMARK  220  A    between atoms: _528  and  _529
REMARK  221  A    between atoms: _534  and  _535
REMARK  222  A    between atoms: _537  and  _539
REMARK  223  A    between atoms: _539  and  _540
REMARK  224  A    between atoms: _539  and  _542
REMARK  225  A    between atoms: _542  and  _543
REMARK  226  A    between atoms: _548  and  _549
REMARK  227  A    between atoms: _551  and  _553
REMARK  228  A    between atoms: _553  and  _554
REMARK  229  A    between atoms: _553  and  _556
REMARK  230  A    between atoms: _556  and  _557
REMARK  231  A    between atoms: _560  and  _562
REMARK  232  A    between atoms: _562  and  _563
REMARK  233  A    between atoms: _562  and  _565
REMARK  234  A    between atoms: _565  and  _566
REMARK  235  A    between atoms: _576  and  _578
REMARK  236  A    between atoms: _578  and  _579
REMARK  237  A    between atoms: _582  and  _584
REMARK  238  A    between atoms: _584  and  _585
REMARK  239  A    between atoms: _588  and  _590
REMARK  240  A    between atoms: _590  and  _591
REMARK  241  A    between atoms: _590  and  _593
REMARK  242  A    between atoms: _593  and  _594
REMARK  243  A    between atoms: _597  and  _599
REMARK  244  A    between atoms: _599  and  _600
REMARK  245  A    between atoms: _599  and  _602
REMARK  246  A    between atoms: _602  and  _603
REMARK  247  A    between atoms: _606  and  _608
REMARK  248  A    between atoms: _608  and  _609
REMARK  249  A    between atoms: _608  and  _611
REMARK  250  A    between atoms: _611  and  _612
REMARK  251  A    between atoms: _615  and  _617
REMARK  252  A    between atoms: _617  and  _618
REMARK  253  A    between atoms: _617  and  _620
REMARK  254  A    between atoms: _620  and  _621
REMARK  255  A    between atoms: _621  and  _622
REMARK  256  A    between atoms: _622  and  _623
REMARK  257  A    between atoms: _623  and  _624
REMARK  258  A    between atoms: _628  and  _630
REMARK  259  A    between atoms: _630  and  _631
REMARK  260  A    between atoms: _630  and  _633
REMARK  261  A    between atoms: _633  and  _634
REMARK  262  A    between atoms: _639  and  _641
REMARK  263  A    between atoms: _641  and  _642
REMARK  264  A    between atoms: _641  and  _644
REMARK  265  A    between atoms: _644  and  _645
REMARK  266  A    between atoms: _645  and  _646
REMARK  267  A    between atoms: _646  and  _647
REMARK  268  A    between atoms: _647  and  _648
REMARK  269  A    between atoms: _652  and  _654
REMARK  270  A    between atoms: _654  and  _655
REMARK  271  A    between atoms: _654  and  _657
REMARK  272  A    between atoms: _657  and  _658
REMARK  273  A    between atoms: _668  and  _670
REMARK  274  A    between atoms: _670  and  _671
REMARK  275  A    between atoms: _674  and  _676
REMARK  276  A    between atoms: _676  and  _677
REMARK  277  A    between atoms: _679  and  _681
REMARK  278  A    between atoms: _681  and  _682
REMARK  279  A    between atoms: _681  and  _684
REMARK  280  A    between atoms: _684  and  _685
REMARK  281  A    between atoms: _685  and  _686
REMARK  282  A    between atoms: _689  and  _691
REMARK  283  A    between atoms: _691  and  _692
REMARK  284  A    between atoms: _695  and  _697
REMARK  285  A    between atoms: _697  and  _698
REMARK  286  A    between atoms: _697  and  _700
REMARK  287  A    between atoms: _700  and  _701
REMARK  288  A    between atoms: _701  and  _702
REMARK  289  A    between atoms: _702  and  _703
REMARK  290  A    between atoms: _712  and  _714
REMARK  291  A    between atoms: _714  and  _715
REMARK  292  A    between atoms: _714  and  _717
REMARK  293  A    between atoms: _717  and  _718
REMARK  294  A    between atoms: _721  and  _723
REMARK  295  A    between atoms: _723  and  _724
REMARK  296  A    between atoms: _723  and  _726
REMARK  297  A    between atoms: _726  and  _727
REMARK  298  A    between atoms: _732  and  _733
REMARK  299  A    between atoms: _735  and  _737
REMARK  300  A    between atoms: _737  and  _738
REMARK  301  A    between atoms: _737  and  _740
REMARK  302  A    between atoms: _740  and  _741
REMARK  303  A    between atoms: _744  and  _746
REMARK  304  A    between atoms: _746  and  _747
REMARK  305  A    between atoms: _746  and  _749
REMARK  306  A    between atoms: _749  and  _750
REMARK  307  A    between atoms: _753  and  _755
REMARK  308  A    between atoms: _755  and  _756
REMARK  309  A    between atoms: _755  and  _758
REMARK  310  A    between atoms: _758  and  _759
REMARK  311  A    between atoms: _760  and  _762
REMARK  312  A    between atoms: _762  and  _763
REMARK  313  A    between atoms: _762  and  _765
REMARK  314  A    between atoms: _768  and  _770
REMARK  315  A    between atoms: _770  and  _771
REMARK  316  A    between atoms: _770  and  _773
REMARK  317  A    between atoms: _773  and  _774
REMARK  318  A    between atoms: _774  and  _775
REMARK  319  A    between atoms: _778  and  _780
REMARK  320  A    between atoms: _780  and  _781
REMARK  321  A    between atoms: _780  and  _783
REMARK  322  A    between atoms: _783  and  _784
REMARK  323  A    between atoms: _794  and  _796
REMARK  324  A    between atoms: _796  and  _797
REMARK  325  A    between atoms: _796  and  _799
REMARK  326  A    between atoms: _799  and  _800
REMARK  327  A    between atoms: _803  and  _805
REMARK  328  A    between atoms: _805  and  _806
REMARK  329  A    between atoms: _805  and  _808
REMARK  330  A    between atoms: _808  and  _809
REMARK  331  A    between atoms: _809  and  _810
REMARK  332  A    between atoms: _810  and  _811
REMARK  333  A    between atoms: _820  and  _822
REMARK  334  A    between atoms: _822  and  _823
REMARK  335  A    between atoms: _822  and  _825
REMARK  336  A    between atoms: _825  and  _826
REMARK  337  A    between atoms: _831  and  _832
REMARK                            x       y       z     vdW  Elec       q    Type
REMARK                         _______ _______ _______ _____ _____    ______ ____
ROOT
ATOM      1  CA  CYS A   8      52.712  12.374  -2.759  0.00  0.00    +0.149 C 
ENDROOT
BRANCH   1   3
ATOM      2  C   GLY A   7      52.278  14.657  -3.540  0.00  0.00    +0.243 C 
ATOM      3  N   CYS A   8      52.373  13.770  -2.551  0.00  0.00    -0.297 N 
ATOM      4  H   CYS A   8      52.195  14.094  -1.579  0.00  0.00    +0.150 HD
ATOM      5  O   GLY A   7      52.608  14.425  -4.703  0.00  0.00    -0.273 OA
BRANCH   2   6
ATOM      6  CA  GLY A   7      51.740  16.016  -3.131  0.00  0.00    +0.176 C 
BRANCH   6   9
ATOM      7  C   LEU A   6      51.527  18.325  -3.835  0.00  0.00    +0.243 C 
ATOM      8  O   LEU A   6      51.083  18.667  -2.736  0.00  0.00    -0.273 OA
ATOM      9  N   GLY A   7      51.873  17.070  -4.121  0.00  0.00    -0.295 N 
ATOM     10  H   GLY A   7      52.243  16.843  -5.066  0.00  0.00    +0.150 HD
BRANCH   7  11
ATOM     11  CA  LEU A   6      51.729  19.355  -4.935  0.00  0.00    +0.178 C 
BRANCH  11  13
ATOM     12  C   TRP A   5      49.890  20.566  -6.035  0.00  0.00    +0.241 C 
ATOM     13  N   LEU A   6      50.602  20.278  -4.946  0.00  0.00    -0.295 N 
ATOM     14  H   LEU A   6      50.338  20.739  -4.052  0.00  0.00    +0.150 HD
ATOM     15  O   TRP A   5      50.166  20.151  -7.158  0.00  0.00    -0.273 OA
BRANCH  12  16
ATOM     16  CA  TRP A   5      48.703  21.508  -5.816  0.00  0.00    +0.149 C 
BRANCH  16  19
ATOM     17  C   GLU A   4      48.971  23.904  -6.215  0.00  0.00    +0.241 C 
ATOM     18  O   GLU A   4      48.754  24.199  -5.034  0.00  0.00    -0.273 OA
ATOM     19  N   TRP A   5      48.871  22.666  -6.690  0.00  0.00    -0.297 N 
ATOM     20  H   TRP A   5      48.914  22.517  -7.718  0.00  0.00    +0.150 HD
BRANCH  17  21
ATOM     21  CA  GLU A   4      49.359  24.977  -7.230  0.00  0.00    +0.149 C 
BRANCH  21  23
ATOM     22  C   VAL A   3      47.942  26.774  -8.066  0.00  0.00    +0.241 C 
ATOM     23  N   GLU A   4      48.546  26.180  -7.041  0.00  0.00    -0.297 N 
ATOM     24  H   GLU A   4      48.439  26.578  -6.086  0.00  0.00    +0.150 HD
ATOM     25  O   VAL A   3      48.111  26.432  -9.237  0.00  0.00    -0.273 OA
BRANCH  22  26
ATOM     26  CA  VAL A   3      47.009  27.924  -7.733  0.00  0.00    +0.149 C 
BRANCH  26  29
ATOM     27  C   CYS A   2      47.472  30.253  -8.319  0.00  0.00    +0.241 C 
ATOM     28  O   CYS A   2      47.543  30.606  -7.143  0.00  0.00    -0.273 OA
ATOM     29  N   VAL A   3      47.189  29.009  -8.693  0.00  0.00    -0.297 N 
ATOM     30  H   VAL A   3      47.092  28.801  -9.707  0.00  0.00    +0.150 HD
BRANCH  27  31
ATOM     31  CA  CYS A   2      47.710  31.254  -9.442  0.00  0.00    +0.148 C 
BRANCH  31  33
ATOM     32  C   THR A   1      45.882  32.820  -9.903  0.00  0.00    +0.241 C 
ATOM     33  N   CYS A   2      46.918  32.448  -9.154  0.00  0.00    -0.297 N 
ATOM     34  H   CYS A   2      47.174  33.030  -8.331  0.00  0.00    +0.150 HD
ATOM     35  O   THR A   1      45.634  32.333 -11.007  0.00  0.00    -0.274 OA
BRANCH  32  36
ATOM     36  CA  THR A   1      44.991  33.908  -9.314  0.00  0.00    +0.172 C 
BRANCH  36  37
ATOM     37  N   THR A   1      44.690  34.963 -10.288  0.00  0.00    -0.236 NA
ATOM     38  H   THR A   1      44.287  34.698 -11.209  0.00  0.00    +0.142 HD
ENDBRANCH  36  37
BRANCH  36  39
ATOM     39  CB  THR A   1      43.700  33.243  -8.786  0.00  0.00    +0.135 C 
ATOM     40  CG2 THR A   1      44.010  32.311  -7.635  0.00  0.00    +0.034 C 
BRANCH  39  41
ATOM     41  OG1 THR A   1      42.783  34.248  -8.332  0.00  0.00    -0.383 OA
ATOM     42  HG1 THR A   1      41.959  33.814  -7.996  0.00  0.00    +0.210 HD
ENDBRANCH  39  41
ENDBRANCH  36  39
ENDBRANCH  32  36
ENDBRANCH  31  33
BRANCH  31  43
ATOM     43  CB  CYS A   2      49.223  31.554  -9.539  0.00  0.00    +0.027 C 
ATOM     44  CG2 CYS A   2      50.017  30.264  -9.704  0.00  0.00    +0.002 C 
BRANCH  43  45
ATOM     45  CG1 CYS A   2      49.515  32.474 -10.725  0.00  0.00    +0.002 C 
ATOM     46  CD1 CYS A   2      50.935  32.996 -10.768  0.00  0.00    +0.000 C 
ENDBRANCH  43  45
ENDBRANCH  31  43
ENDBRANCH  27  31
ENDBRANCH  26  29
BRANCH  26  47
ATOM     47  CB  VAL A   3      45.573  27.411  -7.774  0.00  0.00    +0.039 C 
BRANCH  47  48
ATOM     48  CG  VAL A   3      44.531  28.451  -7.422  0.00  0.00    +0.087 C 
BRANCH  48  49
ATOM     49  CD  VAL A   3      43.156  28.032  -7.872  0.00  0.00    +0.219 C 
ATOM     50  NE2 VAL A   3      42.592  27.049  -7.189  0.00  0.00    -0.329 N 
ATOM     51 HE21 VAL A   3      43.091  26.624  -6.381  0.00  0.00    +0.145 HD
ATOM     52 HE22 VAL A   3      41.650  26.701  -7.460  0.00  0.00    +0.145 HD
ATOM     53  OE1 VAL A   3      42.613  28.572  -8.836  0.00  0.00    -0.275 OA
ENDBRANCH  48  49
ENDBRANCH  47  48
ENDBRANCH  26  47
ENDBRANCH  22  26
ENDBRANCH  21  23
BRANCH  21  54
ATOM     54  CB  GLU A   4      50.870  25.261  -7.105  0.00  0.00    +0.027 C 
ATOM     55  CG2 GLU A   4      51.677  24.130  -7.728  0.00  0.00    +0.002 C 
ATOM     56  CG1 GLU A   4      51.229  26.587  -7.764  0.00  0.00    +0.002 C 
ENDBRANCH  21  54
ENDBRANCH  17  21
ENDBRANCH  16  19
BRANCH  16  57
ATOM     57  CB  TRP A   5      47.339  20.787  -6.016  0.00  0.00    +0.027 C 
ATOM     58  CG2 TRP A   5      47.058  20.485  -7.479  0.00  0.00    +0.002 C 
BRANCH  57  59
ATOM     59  CG1 TRP A   5      47.283  19.469  -5.235  0.00  0.00    +0.002 C 
ATOM     60  CD1 TRP A   5      47.430  19.620  -3.735  0.00  0.00    +0.000 C 
ENDBRANCH  57  59
ENDBRANCH  16  57
ENDBRANCH  12  16
ENDBRANCH  11  13
BRANCH  11  61
ATOM     61  CB  LEU A   6      53.025  20.105  -4.650  0.00  0.00    +0.166 C 
BRANCH  61  62
ATOM     62  O   LEU A   6      53.255  21.118  -5.603  0.00  0.00    -0.380 OA
ATOM     63  H   LEU A   6      52.506  21.765  -5.582  0.00  0.00    +0.211 HD
ENDBRANCH  61  62
ENDBRANCH  11  61
ENDBRANCH   7  11
ENDBRANCH   6   9
ENDBRANCH   2   6
ENDBRANCH   1   3
BRANCH   1  64
ATOM     64  C   CYS A   8      51.768  11.497  -1.945  0.00  0.00    +0.228 C 
ATOM     65  O   CYS A   8      51.167  11.951  -0.972  0.00  0.00    -0.286 OA
ENDBRANCH   1  64
BRANCH   1  66
ATOM     66  CB  CYS A   8      54.165  12.099  -2.359  0.00  0.00    +0.096 C 
BRANCH  66  67
ATOM     67  SG  CYS A   8      54.594  12.440  -0.629  0.00  0.00    -0.080 S 
BRANCH  67  68
ATOM     68  SG  CYS A   2      55.237  14.403  -0.659  0.00  0.00    -0.080 S 
BRANCH  68  69
ATOM     69  CB  CYS A   2      57.039  14.286  -0.829  0.00  0.00    +0.098 C 
BRANCH  69  70
ATOM     70  CA  CYS A   2      57.800  14.087   0.490  0.00  0.00    +0.160 C 
BRANCH  70  71
ATOM     71  N   CYS A   2      59.245  14.103   0.260  0.00  0.00    -0.296 N 
ATOM     72  C   THR A   1      60.123  13.987   1.253  0.00  0.00    +0.241 C 
ATOM     73  O   THR A   1      59.793  13.836   2.433  0.00  0.00    -0.274 OA
ATOM     74  H   CYS A   2      59.598  14.209  -0.713  0.00  0.00    +0.150 HD
BRANCH  72  75
ATOM     75  CA  THR A   1      61.601  14.047   0.867  0.00  0.00    +0.172 C 
BRANCH  75  76
ATOM     76  CB  THR A   1      61.985  15.492   0.486  0.00  0.00    +0.135 C 
ATOM     77  CG2 THR A   1      61.611  16.487   1.573  0.00  0.00    +0.034 C 
BRANCH  76  78
ATOM     78  OG1 THR A   1      63.400  15.554   0.275  0.00  0.00    -0.383 OA
ATOM     79  HG1 THR A   1      63.656  16.478   0.030  0.00  0.00    +0.210 HD
ENDBRANCH  76  78
ENDBRANCH  75  76
BRANCH  75  80
ATOM     80  N   THR A   1      61.956  13.141  -0.227  0.00  0.00    -0.236 NA
ATOM     81  H   THR A   1      62.421  13.545  -1.065  0.00  0.00    +0.142 HD
ENDBRANCH  75  80
ENDBRANCH  72  75
ENDBRANCH  70  71
BRANCH  70  82
ATOM     82  C   CYS A   2      57.353  12.784   1.141  0.00  0.00    +0.242 C 
ATOM     83  O   CYS A   2      56.532  12.790   2.062  0.00  0.00    -0.273 OA
ATOM     84  N   VAL A   3      57.894  11.672   0.652  0.00  0.00    -0.297 N 
ATOM     85  H   VAL A   3      58.578  11.747  -0.128  0.00  0.00    +0.150 HD
BRANCH  84  86
ATOM     86  CA  VAL A   3      57.560  10.347   1.173  0.00  0.00    +0.149 C 
BRANCH  86  87
ATOM     87  C   VAL A   3      58.062  10.164   2.606  0.00  0.00    +0.241 C 
ATOM     88  O   VAL A   3      57.318   9.700   3.470  0.00  0.00    -0.273 OA
ATOM     89  N   GLU A   4      59.312  10.537   2.862  0.00  0.00    -0.297 N 
ATOM     90  H   GLU A   4      59.870  11.003   2.118  0.00  0.00    +0.150 HD
BRANCH  89  91
ATOM     91  CA  GLU A   4      59.915  10.301   4.176  0.00  0.00    +0.149 C 
BRANCH  91  92
ATOM     92  C   GLU A   4      59.272  11.170   5.263  0.00  0.00    +0.241 C 
ATOM     93  O   GLU A   4      59.022  10.697   6.366  0.00  0.00    -0.273 OA
ATOM     94  N   TRP A   5      58.980  12.428   4.947  0.00  0.00    -0.297 N 
ATOM     95  H   TRP A   5      59.244  12.799   4.012  0.00  0.00    +0.150 HD
BRANCH  94  96
ATOM     96  CA  TRP A   5      58.290  13.295   5.904  0.00  0.00    +0.153 C 
BRANCH  96  97
ATOM     97  C   TRP A   5      56.829  12.881   6.111  0.00  0.00    +0.241 C 
ATOM     98  O   TRP A   5      56.306  12.998   7.220  0.00  0.00    -0.273 OA
ATOM     99  N   LEU A   6      56.178  12.381   5.065  0.00  0.00    -0.298 N 
ATOM    100  H   LEU A   6      56.622  12.402   4.125  0.00  0.00    +0.150 HD
BRANCH  99 101
ATOM    101  CA  LEU A   6      54.842  11.801   5.224  0.00  0.00    +0.137 C 
BRANCH 101 102
ATOM    102  C   LEU A   6      54.856  10.626   6.212  0.00  0.00    +0.227 C 
ATOM    103  O   LEU A   6      54.007  10.558   7.101  0.00  0.00    -0.286 OA
ENDBRANCH 101 102
BRANCH 101 104
ATOM    104  CB  LEU A   6      54.272  11.364   3.875  0.00  0.00    +0.028 C 
BRANCH 104 105
ATOM    105  CG  LEU A   6      52.925  10.636   3.848  0.00  0.00    +0.002 C 
ATOM    106  CD2 LEU A   6      51.851  11.338   4.664  0.00  0.00    +0.000 C 
ATOM    107  CD1 LEU A   6      52.462  10.481   2.410  0.00  0.00    +0.000 C 
ENDBRANCH 104 105
ENDBRANCH 101 104
ENDBRANCH  99 101
ENDBRANCH  96  97
BRANCH  96 108
ATOM    108  CB  TRP A   5      58.395  14.768   5.499  0.00  0.00    +0.057 C 
BRANCH 108 109
ATOM    109  CG  TRP A   5      59.725  15.375   5.849  0.00  0.00    -0.002 A 
ATOM    110  CD2 TRP A   5      60.107  15.949   7.109  0.00  0.00    +0.013 A 
ATOM    111  CE3 TRP A   5      59.450  16.138   8.329  0.00  0.00    +0.001 A 
ATOM    112  CZ3 TRP A   5      60.140  16.751   9.372  0.00  0.00    +0.000 A 
ATOM    113  CH2 TRP A   5      61.464  17.184   9.208  0.00  0.00    +0.001 A 
ATOM    114  CZ2 TRP A   5      62.129  17.017   8.023  0.00  0.00    +0.017 A 
ATOM    115  CE2 TRP A   5      61.439  16.396   6.977  0.00  0.00    +0.056 A 
ATOM    116  NE1 TRP A   5      61.840  16.113   5.699  0.00  0.00    -0.352 N 
ATOM    117  HE1 TRP A   5      62.775  16.328   5.298  0.00  0.00    +0.166 HD
ATOM    118  CD1 TRP A   5      60.809  15.499   5.031  0.00  0.00    +0.068 A 
ENDBRANCH 108 109
ENDBRANCH  96 108
ENDBRANCH  94  96
ENDBRANCH  91  92
BRANCH  91 119
ATOM    119  CB  GLU A   4      61.435  10.496   4.120  0.00  0.00    +0.041 C 
BRANCH 119 120
ATOM    120  CG  GLU A   4      62.134   9.457   3.250  0.00  0.00    +0.116 C 
BRANCH 120 121
ATOM    121  CD  GLU A   4      63.518   9.885   2.779  0.00  0.00    +0.365 C 
ATOM    122  OE2 GLU A   4      64.198  10.655   3.493  0.00  0.00    -0.246 OA
ATOM    123  OE1 GLU A   4      63.935   9.439   1.687  0.00  0.00    -0.246 OA
ENDBRANCH 120 121
ENDBRANCH 119 120
ENDBRANCH  91 119
ENDBRANCH  89  91
ENDBRANCH  86  87
BRANCH  86 124
ATOM    124  CB  VAL A   3      58.118   9.234   0.259  0.00  0.00    +0.027 C 
ATOM    125  CG2 VAL A   3      58.037   7.870   0.926  0.00  0.00    +0.002 C 
ATOM    126  CG1 VAL A   3      57.364   9.215  -1.059  0.00  0.00    +0.002 C 
ENDBRANCH  86 124
ENDBRANCH  84  86
ENDBRANCH  70  82
ENDBRANCH  69  70
ENDBRANCH  68  69
ENDBRANCH  67  68
ENDBRANCH  66  67
ENDBRANCH   1  66
TORSDOF 55
REMARK  Name = ../refined-set-2016/4pg9/4pg9_pocket.pdb
REMARK  337 active torsions:
REMARK  status: ('A' for Active; 'I' for Inactive)
REMARK    1  A    between atoms: _1  and  _3
REMARK    2  A    between atoms: _3  and  _4
REMARK    3  A    between atoms: _3  and  _6
REMARK    4  A    between atoms: _6  and  _7
REMARK    5  A    between atoms: _10  and  _12
REMARK    6  A    between atoms: _12  and  _13
REMARK    7  A    between atoms: _12  and  _15
REMARK    8  A    between atoms: _15  and  _16
REMARK    9  A    between atoms: _16  and  _17
REMARK   10  A    between atoms: _17  and  _18
REMARK   11  A    between atoms: _27  and  _29
REMARK   12  A    between atoms: _29  and  _30
REMARK   13  A    between atoms: _29  and  _32
REMARK   14  A    between atoms: _32  and  _33
REMARK   15  A    between atoms: _38  and  _39
REMARK   16  A    between atoms: _41  and  _43
REMARK   17  A    between atoms: _43  and  _44
REMARK   18  A    between atoms: _43  and  _46
REMARK   19  A    between atoms: _46  and  _47
REMARK   20  A    between atoms: _53  and  _55
REMARK   21  A    between atoms: _55  and  _56
REMARK   22  A    between atoms: _55  and  _58
REMARK   23  A    between atoms: _61  and  _63
REMARK   24  A    between atoms: _63  and  _64
REMARK   25  A    between atoms: _63  and  _66
REMARK   26  A    between atoms: _66  and  _67
REMARK   27  A    between atoms: _70  and  _72
REMARK   28  A    between atoms: _72  and  _73
REMARK   29  A    between atoms: _72  and  _75
REMARK   30  A    between atoms: _75  and  _76
REMARK   31  A    between atoms: _81  and  _82
REMARK   32  A    between atoms: _84  and  _86
REMARK   33  A    between atoms: _86  and  _87
REMARK   34  A    between atoms: _86  and  _89
REMARK   35  A    between atoms: _89  and  _90
REMARK   36  A    between atoms: _90  and  _91
REMARK   37  A    between atoms: _93  and  _95
REMARK   38  A    between atoms: _95  and  _96
REMARK   39  A    between atoms: _95  and  _98
REMARK   40  A    between atoms: _98  and  _99
REMARK   41  A    between atoms: _99  and  _100
REMARK   42  A    between atoms: _103  and  _105
REMARK   43  A    between atoms: _105  and  _106
REMARK   44  A    between atoms: _105  and  _108
REMARK   45  A    between atoms: _111  and  _113
REMARK   46  A    between atoms: _113  and  _114
REMARK   47  A    between atoms: _116  and  _118
REMARK   48  A    between atoms: _118  and  _119
REMARK   49  A    between atoms: _118  and  _121
REMARK   50  A    between atoms: _124  and  _126
REMARK   51  A    between atoms: _126  and  _127
REMARK   52  A    between atoms: _126  and  _129
REMARK   53  A    between atoms: _129  and  _130
REMARK   54  A    between atoms: _136  and  _138
REMARK   55  A    between atoms: _138  and  _139
REMARK   56  A    between atoms: _138  and  _141
REMARK   57  A    between atoms: _144  and  _146
REMARK   58  A    between atoms: _146  and  _147
REMARK   59  A    between atoms: _146  and  _149
REMARK   60  A    between atoms: _149  and  _150
REMARK   61  A    between atoms: _155  and  _156
REMARK   62  A    between atoms: _158  and  _160
REMARK   63  A    between atoms: _160  and  _161
REMARK   64  A    between atoms: _160  and  _163
REMARK   65  A    between atoms: _163  and  _164
REMARK   66  A    between atoms: _164  and  _165
REMARK   67  A    between atoms: _167  and  _169
REMARK   68  A    between atoms: _169  and  _170
REMARK   69  A    between atoms: _169  and  _172
REMARK   70  A    between atoms: _172  and  _173
REMARK   71  A    between atoms: _173  and  _174
REMARK   72  A    between atoms: _177  and  _179
REMARK   73  A    between atoms: _179  and  _180
REMARK   74  A    between atoms: _179  and  _182
REMARK   75  A    between atoms: _182  and  _183
REMARK   76  A    between atoms: _183  and  _184
REMARK   77  A    between atoms: _187  and  _189
REMARK   78  A    between atoms: _189  and  _190
REMARK   79  A    between atoms: _189  and  _192
REMARK   80  A    between atoms: _192  and  _193
REMARK   81  A    between atoms: _198  and  _199
REMARK   82  A    between atoms: _201  and  _203
REMARK   83  A    between atoms: _203  and  _204
REMARK   84  A    between atoms: _203  and  _206
REMARK   85  A    between atoms: _206  and  _207
REMARK   86  A    between atoms: _207  and  _208
REMARK   87  A    between atoms: _208  and  _209
REMARK   88  A    between atoms: _218  and  _220
REMARK   89  A    between atoms: _220  and  _221
REMARK   90  A    between atoms: _220  and  _223
REMARK   91  A    between atoms: _223  and  _224
REMARK   92  A    between atoms: _224  and  _225
REMARK   93  A    between atoms: _228  and  _230
REMARK   94  A    between atoms: _230  and  _231
REMARK   95  A    between atoms: _230  and  _233
REMARK   96  A    between atoms: _233  and  _234
REMARK   97  A    between atoms: _237  and  _239
REMARK   98  A    between atoms: _239  and  _240
REMARK   99  A    between atoms: _239  and  _242
REMARK  100  A    between atoms: _242  and  _243
REMARK  101  A    between atoms: _243  and  _244
REMARK  102  A    between atoms: _249  and  _251
REMARK  103  A    between atoms: _251  and  _252
REMARK  104  A    between atoms: _251  and  _254
REMARK  105  A    between atoms: _254  and  _255
REMARK  106  A    between atoms: _255  and  _256
REMARK  107  A    between atoms: _256  and  _257
REMARK  108  A    between atoms: _257  and  _258
REMARK  109  A    between atoms: _262  and  _264
REMARK  110  A    between atoms: _264  and  _265
REMARK  111  A    between atoms: _268  and  _270
REMARK  112  A    between atoms: _270  and  _271
REMARK  113  A    between atoms: _273  and  _275
REMARK  114  A    between atoms: _275  and  _276
REMARK  115  A    between atoms: _275  and  _278
REMARK  116  A    between atoms: _278  and  _279
REMARK  117  A    between atoms: _284  and  _286
REMARK  118  A    between atoms: _286  and  _287
REMARK  119  A    between atoms: _286  and  _289
REMARK  120  A    between atoms: _289  and  _290
REMARK  121  A    between atoms: _290  and  _291
REMARK  122  A    between atoms: _294  and  _296
REMARK  123  A    between atoms: _296  and  _297
REMARK  124  A    between atoms: _296  and  _299
REMARK  125  A    between atoms: _299  and  _300
REMARK  126  A    between atoms: _300  and  _301
REMARK  127  A    between atoms: _306  and  _308
REMARK  128  A    between atoms: _308  and  _309
REMARK  129  A    between atoms: _308  and  _311
REMARK  130  A    between atoms: _311  and  _312
REMARK  131  A    between atoms: _314  and  _316
REMARK  132  A    between atoms: _316  and  _317
REMARK  133  A    between atoms: _316  and  _319
REMARK  134  A    between atoms: _319  and  _320
REMARK  135  A    between atoms: _326  and  _328
REMARK  136  A    between atoms: _328  and  _329
REMARK  137  A    between atoms: _328  and  _331
REMARK  138  A    between atoms: _334  and  _336
REMARK  139  A    between atoms: _336  and  _337
REMARK  140  A    between atoms: _336  and  _339
REMARK  141  A    between atoms: _339  and  _340
REMARK  142  A    between atoms: _343  and  _345
REMARK  143  A    between atoms: _345  and  _346
REMARK  144  A    between atoms: _345  and  _348
REMARK  145  A    between atoms: _348  and  _349
REMARK  146  A    between atoms: _352  and  _354
REMARK  147  A    between atoms: _354  and  _355
REMARK  148  A    between atoms: _354  and  _357
REMARK  149  A    between atoms: _357  and  _358
REMARK  150  A    between atoms: _361  and  _363
REMARK  151  A    between atoms: _363  and  _364
REMARK  152  A    between atoms: _363  and  _366
REMARK  153  A    between atoms: _366  and  _367
REMARK  154  A    between atoms: _370  and  _372
REMARK  155  A    between atoms: _372  and  _373
REMARK  156  A    between atoms: _372  and  _375
REMARK  157  A    between atoms: _375  and  _376
REMARK  158  A    between atoms: _381  and  _382
REMARK  159  A    between atoms: _384  and  _386
REMARK  160  A    between atoms: _386  and  _387
REMARK  161  A    between atoms: _386  and  _389
REMARK  162  A    between atoms: _389  and  _390
REMARK  163  A    between atoms: _395  and  _396
REMARK  164  A    between atoms: _398  and  _400
REMARK  165  A    between atoms: _400  and  _401
REMARK  166  A    between atoms: _400  and  _403
REMARK  167  A    between atoms: _403  and  _404
REMARK  168  A    between atoms: _407  and  _409
REMARK  169  A    between atoms: _409  and  _410
REMARK  170  A    between atoms: _409  and  _412
REMARK  171  A    between atoms: _412  and  _413
REMARK  172  A    between atoms: _416  and  _418
REMARK  173  A    between atoms: _418  and  _419
REMARK  174  A    between atoms: _418  and  _421
REMARK  175  A    between atoms: _421  and  _422
REMARK  176  A    between atoms: _422  and  _423
REMARK  177  A    between atoms: _428  and  _430
REMARK  178  A    between atoms: _430  and  _431
REMARK  179  A    between atoms: _430  and  _433
REMARK  180  A    between atoms: _436  and  _438
REMARK  181  A    between atoms: _438  and  _439
REMARK  182  A    between atoms: _438  and  _441
REMARK  183  A    between atoms: _441  and  _442
REMARK  184  A    between atoms: _445  and  _447
REMARK  185  A    between atoms: _447  and  _448
REMARK  186  A    between atoms: _447  and  _450
REMARK  187  A    between atoms: _450  and  _451
REMARK  188  A    between atoms: _453  and  _455
REMARK  189  A    between atoms: _455  and  _456
REMARK  190  A    between atoms: _458  and  _460
REMARK  191  A    between atoms: _460  and  _461
REMARK  192  A    between atoms: _460  and  _463
REMARK  193  A    between atoms: _463  and  _464
REMARK  194  A    between atoms: _464  and  _759
REMARK  195  A    between atoms: _465  and  _467
REMARK  196  A    between atoms: _467  and  _468
REMARK  197  A    between atoms: _467  and  _470
REMARK  198  A    between atoms: _470  and  _471
REMARK  199  A    between atoms: _476  and  _477
REMARK  200  A    between atoms: _479  and  _481
REMARK  201  A    between atoms: _481  and  _482
REMARK  202  A    between atoms: _481  and  _484
REMARK  203  A    between atoms: _484  and  _485
REMARK  204  A    between atoms: _485  and  _486
REMARK  205  A    between atoms: _491  and  _493
REMARK  206  A    between atoms: _493  and  _494
REMARK  207  A    between atoms: _493  and  _496
REMARK  208  A    between atoms: _496  and  _497
REMARK  209  A    between atoms: _497  and  _498
REMARK  210  A    between atoms: _503  and  _505
REMARK  211  A    between atoms: _505  and  _506
REMARK  212  A    between atoms: _505  and  _508
REMARK  213  A    between atoms: _508  and  _509
REMARK  214  A    between atoms: _514  and  _515
REMARK  215  A    between atoms: _517  and  _519
REMARK  216  A    between atoms: _519  and  _520
REMARK  217  A    between atoms: _523  and  _525
REMARK  218  A    between atoms: _525  and  _526
REMARK  219  A    between atoms: _525  and  _528
REMARK  220  A    between atoms: _528  and  _529
REMARK  221  A    between atoms: _534  and  _535
REMARK  222  A    between atoms: _537  and  _539
REMARK  223  A    between atoms: _539  and  _540
REMARK  224  A    between atoms: _539  and  _542
REMARK  225  A    between atoms: _542  and  _543
REMARK  226  A    between atoms: _548  and  _549
REMARK  227  A    between atoms: _551  and  _553
REMARK  228  A    between atoms: _553  and  _554
REMARK  229  A    between atoms: _553  and  _556
REMARK  230  A    between atoms: _556  and  _557
REMARK  231  A    between atoms: _560  and  _562
REMARK  232  A    between atoms: _562  and  _563
REMARK  233  A    between atoms: _562  and  _565
REMARK  234  A    between atoms: _565  and  _566
REMARK  235  A    between atoms: _576  and  _578
REMARK  236  A    between atoms: _578  and  _579
REMARK  237  A    between atoms: _582  and  _584
REMARK  238  A    between atoms: _584  and  _585
REMARK  239  A    between atoms: _588  and  _590
REMARK  240  A    between atoms: _590  and  _591
REMARK  241  A    between atoms: _590  and  _593
REMARK  242  A    between atoms: _593  and  _594
REMARK  243  A    between atoms: _597  and  _599
REMARK  244  A    between atoms: _599  and  _600
REMARK  245  A    between atoms: _599  and  _602
REMARK  246  A    between atoms: _602  and  _603
REMARK  247  A    between atoms: _606  and  _608
REMARK  248  A    between atoms: _608  and  _609
REMARK  249  A    between atoms: _608  and  _611
REMARK  250  A    between atoms: _611  and  _612
REMARK  251  A    between atoms: _615  and  _617
REMARK  252  A    between atoms: _617  and  _618
REMARK  253  A    between atoms: _617  and  _620
REMARK  254  A    between atoms: _620  and  _621
REMARK  255  A    between atoms: _621  and  _622
REMARK  256  A    between atoms: _622  and  _623
REMARK  257  A    between atoms: _623  and  _624
REMARK  258  A    between atoms: _628  and  _630
REMARK  259  A    between atoms: _630  and  _631
REMARK  260  A    between atoms: _630  and  _633
REMARK  261  A    between atoms: _633  and  _634
REMARK  262  A    between atoms: _639  and  _641
REMARK  263  A    between atoms: _641  and  _642
REMARK  264  A    between atoms: _641  and  _644
REMARK  265  A    between atoms: _644  and  _645
REMARK  266  A    between atoms: _645  and  _646
REMARK  267  A    between atoms: _646  and  _647
REMARK  268  A    between atoms: _647  and  _648
REMARK  269  A    between atoms: _652  and  _654
REMARK  270  A    between atoms: _654  and  _655
REMARK  271  A    between atoms: _654  and  _657
REMARK  272  A    between atoms: _657  and  _658
REMARK  273  A    between atoms: _668  and  _670
REMARK  274  A    between atoms: _670  and  _671
REMARK  275  A    between atoms: _674  and  _676
REMARK  276  A    between atoms: _676  and  _677
REMARK  277  A    between atoms: _679  and  _681
REMARK  278  A    between atoms: _681  and  _682
REMARK  279  A    between atoms: _681  and  _684
REMARK  280  A    between atoms: _684  and  _685
REMARK  281  A    between atoms: _685  and  _686
REMARK  282  A    between atoms: _689  and  _691
REMARK  283  A    between atoms: _691  and  _692
REMARK  284  A    between atoms: _695  and  _697
REMARK  285  A    between atoms: _697  and  _698
REMARK  286  A    between atoms: _697  and  _700
REMARK  287  A    between atoms: _700  and  _701
REMARK  288  A    between atoms: _701  and  _702
REMARK  289  A    between atoms: _702  and  _703
REMARK  290  A    between atoms: _712  and  _714
REMARK  291  A    between atoms: _714  and  _715
REMARK  292  A    between atoms: _714  and  _717
REMARK  293  A    between atoms: _717  and  _718
REMARK  294  A    between atoms: _721  and  _723
REMARK  295  A    between atoms: _723  and  _724
REMARK  296  A    between atoms: _723  and  _726
REMARK  297  A    between atoms: _726  and  _727
REMARK  298  A    between atoms: _732  and  _733
REMARK  299  A    between atoms: _735  and  _737
REMARK  300  A    between atoms: _737  and  _738
REMARK  301  A    between atoms: _737  and  _740
REMARK  302  A    between atoms: _740  and  _741
REMARK  303  A    between atoms: _744  and  _746
REMARK  304  A    between atoms: _746  and  _747
REMARK  305  A    between atoms: _746  and  _749
REMARK  306  A    between atoms: _749  and  _750
REMARK  307  A    between atoms: _753  and  _755
REMARK  308  A    between atoms: _755  and  _756
REMARK  309  A    between atoms: _755  and  _758
REMARK  310  A    between atoms: _758  and  _759
REMARK  311  A    between atoms: _760  and  _762
REMARK  312  A    between atoms: _762  and  _763
REMARK  313  A    between atoms: _762  and  _765
REMARK  314  A    between atoms: _768  and  _770
REMARK  315  A    between atoms: _770  and  _771
REMARK  316  A    between atoms: _770  and  _773
REMARK  317  A    between atoms: _773  and  _774
REMARK  318  A    between atoms: _774  and  _775
REMARK  319  A    between atoms: _778  and  _780
REMARK  320  A    between atoms: _780  and  _781
REMARK  321  A    between atoms: _780  and  _783
REMARK  322  A    between atoms: _783  and  _784
REMARK  323  A    between atoms: _794  and  _796
REMARK  324  A    between atoms: _796  and  _797
REMARK  325  A    between atoms: _796  and  _799
REMARK  326  A    between atoms: _799  and  _800
REMARK  327  A    between atoms: _803  and  _805
REMARK  328  A    between atoms: _805  and  _806
REMARK  329  A    between atoms: _805  and  _808
REMARK  330  A    between atoms: _808  and  _809
REMARK  331  A    between atoms: _809  and  _810
REMARK  332  A    between atoms: _810  and  _811
REMARK  333  A    between atoms: _820  and  _822
REMARK  334  A    between atoms: _822  and  _823
REMARK  335  A    between atoms: _822  and  _825
REMARK  336  A    between atoms: _825  and  _826
REMARK  337  A    between atoms: _831  and  _832
REMARK                            x       y       z     vdW  Elec       q    Type
REMARK                         _______ _______ _______ _____ _____    ______ ____
ROOT
ATOM      1  CA  GLN A   3      49.610  20.859 -11.140  0.00  0.00    +0.149 C 
ENDROOT
BRANCH   1   3
ATOM      2  C   GLN A   2      51.434  19.428 -10.381  0.00  0.00    +0.241 C 
ATOM      3  N   GLN A   3      50.410  20.225 -10.103  0.00  0.00    -0.297 N 
ATOM      4  H   GLN A   3      50.170  20.403  -9.107  0.00  0.00    +0.150 HD
ATOM      5  O   GLN A   2      51.809  19.182 -11.523  0.00  0.00    -0.273 OA
BRANCH   2   6
ATOM      6  CA  GLN A   2      52.142  18.807  -9.194  0.00  0.00    +0.149 C 
BRANCH   6   9
ATOM      7  C   TYR A   1      52.233  16.535  -8.330  0.00  0.00    +0.239 C 
ATOM      8  O   TYR A   1      52.486  16.904  -7.185  0.00  0.00    -0.274 OA
ATOM      9  N   GLN A   2      52.159  17.365  -9.363  0.00  0.00    -0.297 N 
ATOM     10  H   GLN A   2      52.112  16.970 -10.324  0.00  0.00    +0.150 HD
BRANCH   7  11
ATOM     11  CA  TYR A   1      51.989  15.062  -8.656  0.00  0.00    +0.149 C 
BRANCH  11  12
ATOM     12  N   TYR A   1      52.591  14.149  -7.687  0.00  0.00    -0.238 NA
ATOM     13  H   TYR A   1      52.814  14.496  -6.732  0.00  0.00    +0.142 HD
ENDBRANCH  11  12
BRANCH  11  14
ATOM     14  CB  TYR A   1      50.480  14.801  -8.758  0.00  0.00    +0.053 C 
BRANCH  14  15
ATOM     15  CG  TYR A   1      49.805  14.587  -7.418  0.00  0.00    -0.020 A 
ATOM     16  CD2 TYR A   1      49.498  15.665  -6.585  0.00  0.00    -0.001 A 
ATOM     17  CE2 TYR A   1      48.888  15.470  -5.354  0.00  0.00    +0.036 A 
ATOM     18  CZ  TYR A   1      48.578  14.181  -4.943  0.00  0.00    +0.134 A 
ATOM     19  CE1 TYR A   1      48.877  13.102  -5.752  0.00  0.00    +0.036 A 
ATOM     20  CD1 TYR A   1      49.486  13.308  -6.978  0.00  0.00    -0.001 A 
BRANCH  18  21
ATOM     21  OH  TYR A   1      47.969  13.964  -3.726  0.00  0.00    -0.506 OA
ATOM     22  HH  TYR A   1      47.098  13.515  -3.869  0.00  0.00    +0.292 HD
ENDBRANCH  18  21
ENDBRANCH  14  15
ENDBRANCH  11  14
ENDBRANCH   7  11
ENDBRANCH   6   9
BRANCH   6  23
ATOM     23  CB  GLN A   2      53.555  19.371  -9.064  0.00  0.00    +0.039 C 
BRANCH  23  24
ATOM     24  CG  GLN A   2      53.580  20.869  -8.806  0.00  0.00    +0.087 C 
BRANCH  24  25
ATOM     25  CD  GLN A   2      54.981  21.401  -8.566  0.00  0.00    +0.219 C 
ATOM     26  NE2 GLN A   2      55.325  21.631  -7.300  0.00  0.00    -0.329 N 
ATOM     27 HE21 GLN A   2      54.649  21.436  -6.534  0.00  0.00    +0.145 HD
ATOM     28 HE22 GLN A   2      56.269  22.006  -7.078  0.00  0.00    +0.145 HD
ATOM     29  OE1 GLN A   2      55.742  21.614  -9.511  0.00  0.00    -0.275 OA
ENDBRANCH  24  25
ENDBRANCH  23  24
ENDBRANCH   6  23
ENDBRANCH   2   6
ENDBRANCH   1   3
BRANCH   1  30
ATOM     30  C   GLN A   3      49.406  22.333 -10.814  0.00  0.00    +0.241 C 
ATOM     31  O   GLN A   3      49.181  22.677  -9.654  0.00  0.00    -0.273 OA
ATOM     32  N   TYR A   4      49.509  23.189 -11.836  0.00  0.00    -0.297 N 
ATOM     33  H   TYR A   4      49.750  22.811 -12.774  0.00  0.00    +0.150 HD
BRANCH  32  34
ATOM     34  CA  TYR A   4      49.299  24.636 -11.701  0.00  0.00    +0.153 C 
BRANCH  34  35
ATOM     35  C   TYR A   4      48.037  25.063 -12.445  0.00  0.00    +0.241 C 
ATOM     36  N   ALA A   5      47.388  26.112 -11.947  0.00  0.00    -0.297 N 
ATOM     37  H   ALA A   5      47.688  26.500 -11.030  0.00  0.00    +0.150 HD
ATOM     38  O   TYR A   4      47.686  24.478 -13.470  0.00  0.00    -0.273 OA
BRANCH  36  39
ATOM     39  CA  ALA A   5      46.271  26.735 -12.645  0.00  0.00    +0.149 C 
ATOM     40  CB  ALA A   5      44.949  26.309 -12.031  0.00  0.00    +0.031 C 
BRANCH  39  41
ATOM     41  C   ALA A   5      46.392  28.254 -12.623  0.00  0.00    +0.241 C 
ATOM     42  O   ALA A   5      46.894  28.826 -11.661  0.00  0.00    -0.273 OA
ATOM     43  N   TYR A   6      45.921  28.884 -13.696  0.00  0.00    -0.298 N 
ATOM     44  H   TYR A   6      45.605  28.315 -14.507  0.00  0.00    +0.150 HD
BRANCH  43  45
ATOM     45  CA  TYR A   6      45.829  30.330 -13.785  0.00  0.00    +0.141 C 
BRANCH  45  46
ATOM     46  C   TYR A   6      44.363  30.720 -13.985  0.00  0.00    +0.227 C 
ATOM     47  O   TYR A   6      43.696  30.211 -14.889  0.00  0.00    -0.286 OA
ENDBRANCH  45  46
BRANCH  45  48
ATOM     48  CB  TYR A   6      46.696  30.843 -14.935  0.00  0.00    +0.054 C 
BRANCH  48  49
ATOM     49  CG  TYR A   6      46.795  32.356 -15.024  0.00  0.00    -0.020 A 
ATOM     50  CD2 TYR A   6      47.230  33.118 -13.937  0.00  0.00    -0.001 A 
ATOM     51  CE2 TYR A   6      47.330  34.503 -14.024  0.00  0.00    +0.036 A 
ATOM     52  CZ  TYR A   6      46.990  35.140 -15.207  0.00  0.00    +0.134 A 
ATOM     53  CE1 TYR A   6      46.559  34.406 -16.295  0.00  0.00    +0.036 A 
ATOM     54  CD1 TYR A   6      46.468  33.026 -16.203  0.00  0.00    -0.001 A 
BRANCH  52  55
ATOM     55  OH  TYR A   6      47.081  36.512 -15.317  0.00  0.00    -0.506 OA
ATOM     56  HH  TYR A   6      46.189  36.885 -15.530  0.00  0.00    +0.292 HD
ENDBRANCH  52  55
ENDBRANCH  48  49
ENDBRANCH  45  48
ENDBRANCH  43  45
ENDBRANCH  39  41
ENDBRANCH  36  39
ENDBRANCH  34  35
BRANCH  34  57
ATOM     57  CB  TYR A   4      50.454  25.432 -12.314  0.00  0.00    +0.055 C 
BRANCH  57  58
ATOM     58  CG  TYR A   4      51.790  25.389 -11.598  0.00  0.00    -0.020 A 
ATOM     59  CD2 TYR A   4      52.324  26.536 -11.011  0.00  0.00    -0.001 A 
ATOM     60  CE2 TYR A   4      53.561  26.514 -10.385  0.00  0.00    +0.036 A 
ATOM     61  CZ  TYR A   4      54.287  25.338 -10.352  0.00  0.00    +0.134 A 
ATOM     62  CE1 TYR A   4      53.784  24.193 -10.944  0.00  0.00    +0.036 A 
ATOM     63  CD1 TYR A   4      52.550  24.229 -11.570  0.00  0.00    -0.001 A 
BRANCH  61  64
ATOM     64  OH  TYR A   4      55.523  25.298  -9.735  0.00  0.00    -0.506 OA
ATOM     65  HH  TYR A   4      55.897  24.384  -9.806  0.00  0.00    +0.292 HD
ENDBRANCH  61  64
ENDBRANCH  57  58
ENDBRANCH  34  57
ENDBRANCH  32  34
ENDBRANCH   1  30
BRANCH   1  66
ATOM     66  CB  GLN A   3      48.268  20.144 -11.252  0.00  0.00    +0.039 C 
BRANCH  66  67
ATOM     67  CG  GLN A   3      48.377  18.757 -11.877  0.00  0.00    +0.087 C 
BRANCH  67  68
ATOM     68  CD  GLN A   3      47.335  17.764 -11.378  0.00  0.00    +0.219 C 
ATOM     69  NE2 GLN A   3      46.120  18.244 -11.123  0.00  0.00    -0.329 N 
ATOM     70 HE21 GLN A   3      45.368  17.607 -10.791  0.00  0.00    +0.145 HD
ATOM     71 HE22 GLN A   3      45.922  19.256 -11.256  0.00  0.00    +0.145 HD
ATOM     72  OE1 GLN A   3      47.624  16.566 -11.236  0.00  0.00    -0.275 OA
ENDBRANCH  67  68
ENDBRANCH  66  67
ENDBRANCH   1  66
TORSDOF 27
REMARK  Name = ../refined-set-2016/4pg9/4pg9_pocket.pdb
REMARK  337 active torsions:
REMARK  status: ('A' for Active; 'I' for Inactive)
REMARK    1  A    between atoms: _1  and  _3
REMARK    2  A    between atoms: _3  and  _4
REMARK    3  A    between atoms: _3  and  _6
REMARK    4  A    between atoms: _6  and  _7
REMARK    5  A    between atoms: _10  and  _12
REMARK    6  A    between atoms: _12  and  _13
REMARK    7  A    between atoms: _12  and  _15
REMARK    8  A    between atoms: _15  and  _16
REMARK    9  A    between atoms: _16  and  _17
REMARK   10  A    between atoms: _17  and  _18
REMARK   11  A    between atoms: _27  and  _29
REMARK   12  A    between atoms: _29  and  _30
REMARK   13  A    between atoms: _29  and  _32
REMARK   14  A    between atoms: _32  and  _33
REMARK   15  A    between atoms: _38  and  _39
REMARK   16  A    between atoms: _41  and  _43
REMARK   17  A    between atoms: _43  and  _44
REMARK   18  A    between atoms: _43  and  _46
REMARK   19  A    between atoms: _46  and  _47
REMARK   20  A    between atoms: _53  and  _55
REMARK   21  A    between atoms: _55  and  _56
REMARK   22  A    between atoms: _55  and  _58
REMARK   23  A    between atoms: _61  and  _63
REMARK   24  A    between atoms: _63  and  _64
REMARK   25  A    between atoms: _63  and  _66
REMARK   26  A    between atoms: _66  and  _67
REMARK   27  A    between atoms: _70  and  _72
REMARK   28  A    between atoms: _72  and  _73
REMARK   29  A    between atoms: _72  and  _75
REMARK   30  A    between atoms: _75  and  _76
REMARK   31  A    between atoms: _81  and  _82
REMARK   32  A    between atoms: _84  and  _86
REMARK   33  A    between atoms: _86  and  _87
REMARK   34  A    between atoms: _86  and  _89
REMARK   35  A    between atoms: _89  and  _90
REMARK   36  A    between atoms: _90  and  _91
REMARK   37  A    between atoms: _93  and  _95
REMARK   38  A    between atoms: _95  and  _96
REMARK   39  A    between atoms: _95  and  _98
REMARK   40  A    between atoms: _98  and  _99
REMARK   41  A    between atoms: _99  and  _100
REMARK   42  A    between atoms: _103  and  _105
REMARK   43  A    between atoms: _105  and  _106
REMARK   44  A    between atoms: _105  and  _108
REMARK   45  A    between atoms: _111  and  _113
REMARK   46  A    between atoms: _113  and  _114
REMARK   47  A    between atoms: _116  and  _118
REMARK   48  A    between atoms: _118  and  _119
REMARK   49  A    between atoms: _118  and  _121
REMARK   50  A    between atoms: _124  and  _126
REMARK   51  A    between atoms: _126  and  _127
REMARK   52  A    between atoms: _126  and  _129
REMARK   53  A    between atoms: _129  and  _130
REMARK   54  A    between atoms: _136  and  _138
REMARK   55  A    between atoms: _138  and  _139
REMARK   56  A    between atoms: _138  and  _141
REMARK   57  A    between atoms: _144  and  _146
REMARK   58  A    between atoms: _146  and  _147
REMARK   59  A    between atoms: _146  and  _149
REMARK   60  A    between atoms: _149  and  _150
REMARK   61  A    between atoms: _155  and  _156
REMARK   62  A    between atoms: _158  and  _160
REMARK   63  A    between atoms: _160  and  _161
REMARK   64  A    between atoms: _160  and  _163
REMARK   65  A    between atoms: _163  and  _164
REMARK   66  A    between atoms: _164  and  _165
REMARK   67  A    between atoms: _167  and  _169
REMARK   68  A    between atoms: _169  and  _170
REMARK   69  A    between atoms: _169  and  _172
REMARK   70  A    between atoms: _172  and  _173
REMARK   71  A    between atoms: _173  and  _174
REMARK   72  A    between atoms: _177  and  _179
REMARK   73  A    between atoms: _179  and  _180
REMARK   74  A    between atoms: _179  and  _182
REMARK   75  A    between atoms: _182  and  _183
REMARK   76  A    between atoms: _183  and  _184
REMARK   77  A    between atoms: _187  and  _189
REMARK   78  A    between atoms: _189  and  _190
REMARK   79  A    between atoms: _189  and  _192
REMARK   80  A    between atoms: _192  and  _193
REMARK   81  A    between atoms: _198  and  _199
REMARK   82  A    between atoms: _201  and  _203
REMARK   83  A    between atoms: _203  and  _204
REMARK   84  A    between atoms: _203  and  _206
REMARK   85  A    between atoms: _206  and  _207
REMARK   86  A    between atoms: _207  and  _208
REMARK   87  A    between atoms: _208  and  _209
REMARK   88  A    between atoms: _218  and  _220
REMARK   89  A    between atoms: _220  and  _221
REMARK   90  A    between atoms: _220  and  _223
REMARK   91  A    between atoms: _223  and  _224
REMARK   92  A    between atoms: _224  and  _225
REMARK   93  A    between atoms: _228  and  _230
REMARK   94  A    between atoms: _230  and  _231
REMARK   95  A    between atoms: _230  and  _233
REMARK   96  A    between atoms: _233  and  _234
REMARK   97  A    between atoms: _237  and  _239
REMARK   98  A    between atoms: _239  and  _240
REMARK   99  A    between atoms: _239  and  _242
REMARK  100  A    between atoms: _242  and  _243
REMARK  101  A    between atoms: _243  and  _244
REMARK  102  A    between atoms: _249  and  _251
REMARK  103  A    between atoms: _251  and  _252
REMARK  104  A    between atoms: _251  and  _254
REMARK  105  A    between atoms: _254  and  _255
REMARK  106  A    between atoms: _255  and  _256
REMARK  107  A    between atoms: _256  and  _257
REMARK  108  A    between atoms: _257  and  _258
REMARK  109  A    between atoms: _262  and  _264
REMARK  110  A    between atoms: _264  and  _265
REMARK  111  A    between atoms: _268  and  _270
REMARK  112  A    between atoms: _270  and  _271
REMARK  113  A    between atoms: _273  and  _275
REMARK  114  A    between atoms: _275  and  _276
REMARK  115  A    between atoms: _275  and  _278
REMARK  116  A    between atoms: _278  and  _279
REMARK  117  A    between atoms: _284  and  _286
REMARK  118  A    between atoms: _286  and  _287
REMARK  119  A    between atoms: _286  and  _289
REMARK  120  A    between atoms: _289  and  _290
REMARK  121  A    between atoms: _290  and  _291
REMARK  122  A    between atoms: _294  and  _296
REMARK  123  A    between atoms: _296  and  _297
REMARK  124  A    between atoms: _296  and  _299
REMARK  125  A    between atoms: _299  and  _300
REMARK  126  A    between atoms: _300  and  _301
REMARK  127  A    between atoms: _306  and  _308
REMARK  128  A    between atoms: _308  and  _309
REMARK  129  A    between atoms: _308  and  _311
REMARK  130  A    between atoms: _311  and  _312
REMARK  131  A    between atoms: _314  and  _316
REMARK  132  A    between atoms: _316  and  _317
REMARK  133  A    between atoms: _316  and  _319
REMARK  134  A    between atoms: _319  and  _320
REMARK  135  A    between atoms: _326  and  _328
REMARK  136  A    between atoms: _328  and  _329
REMARK  137  A    between atoms: _328  and  _331
REMARK  138  A    between atoms: _334  and  _336
REMARK  139  A    between atoms: _336  and  _337
REMARK  140  A    between atoms: _336  and  _339
REMARK  141  A    between atoms: _339  and  _340
REMARK  142  A    between atoms: _343  and  _345
REMARK  143  A    between atoms: _345  and  _346
REMARK  144  A    between atoms: _345  and  _348
REMARK  145  A    between atoms: _348  and  _349
REMARK  146  A    between atoms: _352  and  _354
REMARK  147  A    between atoms: _354  and  _355
REMARK  148  A    between atoms: _354  and  _357
REMARK  149  A    between atoms: _357  and  _358
REMARK  150  A    between atoms: _361  and  _363
REMARK  151  A    between atoms: _363  and  _364
REMARK  152  A    between atoms: _363  and  _366
REMARK  153  A    between atoms: _366  and  _367
REMARK  154  A    between atoms: _370  and  _372
REMARK  155  A    between atoms: _372  and  _373
REMARK  156  A    between atoms: _372  and  _375
REMARK  157  A    between atoms: _375  and  _376
REMARK  158  A    between atoms: _381  and  _382
REMARK  159  A    between atoms: _384  and  _386
REMARK  160  A    between atoms: _386  and  _387
REMARK  161  A    between atoms: _386  and  _389
REMARK  162  A    between atoms: _389  and  _390
REMARK  163  A    between atoms: _395  and  _396
REMARK  164  A    between atoms: _398  and  _400
REMARK  165  A    between atoms: _400  and  _401
REMARK  166  A    between atoms: _400  and  _403
REMARK  167  A    between atoms: _403  and  _404
REMARK  168  A    between atoms: _407  and  _409
REMARK  169  A    between atoms: _409  and  _410
REMARK  170  A    between atoms: _409  and  _412
REMARK  171  A    between atoms: _412  and  _413
REMARK  172  A    between atoms: _416  and  _418
REMARK  173  A    between atoms: _418  and  _419
REMARK  174  A    between atoms: _418  and  _421
REMARK  175  A    between atoms: _421  and  _422
REMARK  176  A    between atoms: _422  and  _423
REMARK  177  A    between atoms: _428  and  _430
REMARK  178  A    between atoms: _430  and  _431
REMARK  179  A    between atoms: _430  and  _433
REMARK  180  A    between atoms: _436  and  _438
REMARK  181  A    between atoms: _438  and  _439
REMARK  182  A    between atoms: _438  and  _441
REMARK  183  A    between atoms: _441  and  _442
REMARK  184  A    between atoms: _445  and  _447
REMARK  185  A    between atoms: _447  and  _448
REMARK  186  A    between atoms: _447  and  _450
REMARK  187  A    between atoms: _450  and  _451
REMARK  188  A    between atoms: _453  and  _455
REMARK  189  A    between atoms: _455  and  _456
REMARK  190  A    between atoms: _458  and  _460
REMARK  191  A    between atoms: _460  and  _461
REMARK  192  A    between atoms: _460  and  _463
REMARK  193  A    between atoms: _463  and  _464
REMARK  194  A    between atoms: _464  and  _759
REMARK  195  A    between atoms: _465  and  _467
REMARK  196  A    between atoms: _467  and  _468
REMARK  197  A    between atoms: _467  and  _470
REMARK  198  A    between atoms: _470  and  _471
REMARK  199  A    between atoms: _476  and  _477
REMARK  200  A    between atoms: _479  and  _481
REMARK  201  A    between atoms: _481  and  _482
REMARK  202  A    between atoms: _481  and  _484
REMARK  203  A    between atoms: _484  and  _485
REMARK  204  A    between atoms: _485  and  _486
REMARK  205  A    between atoms: _491  and  _493
REMARK  206  A    between atoms: _493  and  _494
REMARK  207  A    between atoms: _493  and  _496
REMARK  208  A    between atoms: _496  and  _497
REMARK  209  A    between atoms: _497  and  _498
REMARK  210  A    between atoms: _503  and  _505
REMARK  211  A    between atoms: _505  and  _506
REMARK  212  A    between atoms: _505  and  _508
REMARK  213  A    between atoms: _508  and  _509
REMARK  214  A    between atoms: _514  and  _515
REMARK  215  A    between atoms: _517  and  _519
REMARK  216  A    between atoms: _519  and  _520
REMARK  217  A    between atoms: _523  and  _525
REMARK  218  A    between atoms: _525  and  _526
REMARK  219  A    between atoms: _525  and  _528
REMARK  220  A    between atoms: _528  and  _529
REMARK  221  A    between atoms: _534  and  _535
REMARK  222  A    between atoms: _537  and  _539
REMARK  223  A    between atoms: _539  and  _540
REMARK  224  A    between atoms: _539  and  _542
REMARK  225  A    between atoms: _542  and  _543
REMARK  226  A    between atoms: _548  and  _549
REMARK  227  A    between atoms: _551  and  _553
REMARK  228  A    between atoms: _553  and  _554
REMARK  229  A    between atoms: _553  and  _556
REMARK  230  A    between atoms: _556  and  _557
REMARK  231  A    between atoms: _560  and  _562
REMARK  232  A    between atoms: _562  and  _563
REMARK  233  A    between atoms: _562  and  _565
REMARK  234  A    between atoms: _565  and  _566
REMARK  235  A    between atoms: _576  and  _578
REMARK  236  A    between atoms: _578  and  _579
REMARK  237  A    between atoms: _582  and  _584
REMARK  238  A    between atoms: _584  and  _585
REMARK  239  A    between atoms: _588  and  _590
REMARK  240  A    between atoms: _590  and  _591
REMARK  241  A    between atoms: _590  and  _593
REMARK  242  A    between atoms: _593  and  _594
REMARK  243  A    between atoms: _597  and  _599
REMARK  244  A    between atoms: _599  and  _600
REMARK  245  A    between atoms: _599  and  _602
REMARK  246  A    between atoms: _602  and  _603
REMARK  247  A    between atoms: _606  and  _608
REMARK  248  A    between atoms: _608  and  _609
REMARK  249  A    between atoms: _608  and  _611
REMARK  250  A    between atoms: _611  and  _612
REMARK  251  A    between atoms: _615  and  _617
REMARK  252  A    between atoms: _617  and  _618
REMARK  253  A    between atoms: _617  and  _620
REMARK  254  A    between atoms: _620  and  _621
REMARK  255  A    between atoms: _621  and  _622
REMARK  256  A    between atoms: _622  and  _623
REMARK  257  A    between atoms: _623  and  _624
REMARK  258  A    between atoms: _628  and  _630
REMARK  259  A    between atoms: _630  and  _631
REMARK  260  A    between atoms: _630  and  _633
REMARK  261  A    between atoms: _633  and  _634
REMARK  262  A    between atoms: _639  and  _641
REMARK  263  A    between atoms: _641  and  _642
REMARK  264  A    between atoms: _641  and  _644
REMARK  265  A    between atoms: _644  and  _645
REMARK  266  A    between atoms: _645  and  _646
REMARK  267  A    between atoms: _646  and  _647
REMARK  268  A    between atoms: _647  and  _648
REMARK  269  A    between atoms: _652  and  _654
REMARK  270  A    between atoms: _654  and  _655
REMARK  271  A    between atoms: _654  and  _657
REMARK  272  A    between atoms: _657  and  _658
REMARK  273  A    between atoms: _668  and  _670
REMARK  274  A    between atoms: _670  and  _671
REMARK  275  A    between atoms: _674  and  _676
REMARK  276  A    between atoms: _676  and  _677
REMARK  277  A    between atoms: _679  and  _681
REMARK  278  A    between atoms: _681  and  _682
REMARK  279  A    between atoms: _681  and  _684
REMARK  280  A    between atoms: _684  and  _685
REMARK  281  A    between atoms: _685  and  _686
REMARK  282  A    between atoms: _689  and  _691
REMARK  283  A    between atoms: _691  and  _692
REMARK  284  A    between atoms: _695  and  _697
REMARK  285  A    between atoms: _697  and  _698
REMARK  286  A    between atoms: _697  and  _700
REMARK  287  A    between atoms: _700  and  _701
REMARK  288  A    between atoms: _701  and  _702
REMARK  289  A    between atoms: _702  and  _703
REMARK  290  A    between atoms: _712  and  _714
REMARK  291  A    between atoms: _714  and  _715
REMARK  292  A    between atoms: _714  and  _717
REMARK  293  A    between atoms: _717  and  _718
REMARK  294  A    between atoms: _721  and  _723
REMARK  295  A    between atoms: _723  and  _724
REMARK  296  A    between atoms: _723  and  _726
REMARK  297  A    between atoms: _726  and  _727
REMARK  298  A    between atoms: _732  and  _733
REMARK  299  A    between atoms: _735  and  _737
REMARK  300  A    between atoms: _737  and  _738
REMARK  301  A    between atoms: _737  and  _740
REMARK  302  A    between atoms: _740  and  _741
REMARK  303  A    between atoms: _744  and  _746
REMARK  304  A    between atoms: _746  and  _747
REMARK  305  A    between atoms: _746  and  _749
REMARK  306  A    between atoms: _749  and  _750
REMARK  307  A    between atoms: _753  and  _755
REMARK  308  A    between atoms: _755  and  _756
REMARK  309  A    between atoms: _755  and  _758
REMARK  310  A    between atoms: _758  and  _759
REMARK  311  A    between atoms: _760  and  _762
REMARK  312  A    between atoms: _762  and  _763
REMARK  313  A    between atoms: _762  and  _765
REMARK  314  A    between atoms: _768  and  _770
REMARK  315  A    between atoms: _770  and  _771
REMARK  316  A    between atoms: _770  and  _773
REMARK  317  A    between atoms: _773  and  _774
REMARK  318  A    between atoms: _774  and  _775
REMARK  319  A    between atoms: _778  and  _780
REMARK  320  A    between atoms: _780  and  _781
REMARK  321  A    between atoms: _780  and  _783
REMARK  322  A    between atoms: _783  and  _784
REMARK  323  A    between atoms: _794  and  _796
REMARK  324  A    between atoms: _796  and  _797
REMARK  325  A    between atoms: _796  and  _799
REMARK  326  A    between atoms: _799  and  _800
REMARK  327  A    between atoms: _803  and  _805
REMARK  328  A    between atoms: _805  and  _806
REMARK  329  A    between atoms: _805  and  _808
REMARK  330  A    between atoms: _808  and  _809
REMARK  331  A    between atoms: _809  and  _810
REMARK  332  A    between atoms: _810  and  _811
REMARK  333  A    between atoms: _820  and  _822
REMARK  334  A    between atoms: _822  and  _823
REMARK  335  A    between atoms: _822  and  _825
REMARK  336  A    between atoms: _825  and  _826
REMARK  337  A    between atoms: _831  and  _832
REMARK                            x       y       z     vdW  Elec       q    Type
REMARK                         _______ _______ _______ _____ _____    ______ ____
ROOT
ATOM      1  CA  TYR A   1      48.081  25.796 -16.818  0.00  0.00    +0.149 C 
ENDROOT
BRANCH   1   2
ATOM      2  C   TYR A   1      49.104  24.746 -17.246  0.00  0.00    +0.239 C 
ATOM      3  N   ILE A   2      49.744  24.115 -16.265  0.00  0.00    -0.298 N 
ATOM      4  H   ILE A   2      49.489  24.334 -15.281  0.00  0.00    +0.150 HD
ATOM      5  O   TYR A   1      49.282  24.496 -18.439  0.00  0.00    -0.274 OA
BRANCH   3   6
ATOM      6  CA  ILE A   2      50.792  23.126 -16.515  0.00  0.00    +0.137 C 
BRANCH   6   7
ATOM      7  C   ILE A   2      50.773  22.050 -15.429  0.00  0.00    +0.227 C 
ATOM      8  O   ILE A   2      50.422  22.316 -14.281  0.00  0.00    -0.286 OA
ENDBRANCH   6   7
BRANCH   6   9
ATOM      9  CB  ILE A   2      52.190  23.790 -16.588  0.00  0.00    +0.026 C 
ATOM     10  CG2 ILE A   2      52.726  24.114 -15.197  0.00  0.00    +0.002 C 
BRANCH   9  11
ATOM     11  CG1 ILE A   2      53.178  22.903 -17.349  0.00  0.00    +0.002 C 
ATOM     12  CD1 ILE A   2      54.467  23.606 -17.729  0.00  0.00    +0.000 C 
ENDBRANCH   9  11
ENDBRANCH   6   9
ENDBRANCH   3   6
ENDBRANCH   1   2
BRANCH   1  13
ATOM     13  N   TYR A   1      46.957  25.126 -16.188  0.00  0.00    -0.238 NA
ATOM     14  H   TYR A   1      47.096  24.677 -15.260  0.00  0.00    +0.142 HD
ENDBRANCH   1  13
BRANCH   1  15
ATOM     15  CB  TYR A   1      48.694  26.830 -15.859  0.00  0.00    +0.053 C 
BRANCH  15  16
ATOM     16  CG  TYR A   1      49.799  27.657 -16.478  0.00  0.00    -0.020 A 
ATOM     17  CD2 TYR A   1      51.139  27.396 -16.193  0.00  0.00    -0.001 A 
ATOM     18  CE2 TYR A   1      52.151  28.151 -16.768  0.00  0.00    +0.036 A 
ATOM     19  CZ  TYR A   1      51.829  29.181 -17.637  0.00  0.00    +0.134 A 
ATOM     20  CE1 TYR A   1      50.506  29.457 -17.929  0.00  0.00    +0.036 A 
ATOM     21  CD1 TYR A   1      49.503  28.698 -17.351  0.00  0.00    -0.001 A 
BRANCH  19  22
ATOM     22  OH  TYR A   1      52.814  29.939 -18.215  0.00  0.00    -0.506 OA
ATOM     23  HH  TYR A   1      53.406  29.355 -18.752  0.00  0.00    +0.292 HD
ENDBRANCH  19  22
ENDBRANCH  15  16
ENDBRANCH   1  15
TORSDOF 9
REMARK  Name = ../refined-set-2016/4pg9/4pg9_pocket.pdb
REMARK  337 active torsions:
REMARK  status: ('A' for Active; 'I' for Inactive)
REMARK    1  A    between atoms: _1  and  _3
REMARK    2  A    between atoms: _3  and  _4
REMARK    3  A    between atoms: _3  and  _6
REMARK    4  A    between atoms: _6  and  _7
REMARK    5  A    between atoms: _10  and  _12
REMARK    6  A    between atoms: _12  and  _13
REMARK    7  A    between atoms: _12  and  _15
REMARK    8  A    between atoms: _15  and  _16
REMARK    9  A    between atoms: _16  and  _17
REMARK   10  A    between atoms: _17  and  _18
REMARK   11  A    between atoms: _27  and  _29
REMARK   12  A    between atoms: _29  and  _30
REMARK   13  A    between atoms: _29  and  _32
REMARK   14  A    between atoms: _32  and  _33
REMARK   15  A    between atoms: _38  and  _39
REMARK   16  A    between atoms: _41  and  _43
REMARK   17  A    between atoms: _43  and  _44
REMARK   18  A    between atoms: _43  and  _46
REMARK   19  A    between atoms: _46  and  _47
REMARK   20  A    between atoms: _53  and  _55
REMARK   21  A    between atoms: _55  and  _56
REMARK   22  A    between atoms: _55  and  _58
REMARK   23  A    between atoms: _61  and  _63
REMARK   24  A    between atoms: _63  and  _64
REMARK   25  A    between atoms: _63  and  _66
REMARK   26  A    between atoms: _66  and  _67
REMARK   27  A    between atoms: _70  and  _72
REMARK   28  A    between atoms: _72  and  _73
REMARK   29  A    between atoms: _72  and  _75
REMARK   30  A    between atoms: _75  and  _76
REMARK   31  A    between atoms: _81  and  _82
REMARK   32  A    between atoms: _84  and  _86
REMARK   33  A    between atoms: _86  and  _87
REMARK   34  A    between atoms: _86  and  _89
REMARK   35  A    between atoms: _89  and  _90
REMARK   36  A    between atoms: _90  and  _91
REMARK   37  A    between atoms: _93  and  _95
REMARK   38  A    between atoms: _95  and  _96
REMARK   39  A    between atoms: _95  and  _98
REMARK   40  A    between atoms: _98  and  _99
REMARK   41  A    between atoms: _99  and  _100
REMARK   42  A    between atoms: _103  and  _105
REMARK   43  A    between atoms: _105  and  _106
REMARK   44  A    between atoms: _105  and  _108
REMARK   45  A    between atoms: _111  and  _113
REMARK   46  A    between atoms: _113  and  _114
REMARK   47  A    between atoms: _116  and  _118
REMARK   48  A    between atoms: _118  and  _119
REMARK   49  A    between atoms: _118  and  _121
REMARK   50  A    between atoms: _124  and  _126
REMARK   51  A    between atoms: _126  and  _127
REMARK   52  A    between atoms: _126  and  _129
REMARK   53  A    between atoms: _129  and  _130
REMARK   54  A    between atoms: _136  and  _138
REMARK   55  A    between atoms: _138  and  _139
REMARK   56  A    between atoms: _138  and  _141
REMARK   57  A    between atoms: _144  and  _146
REMARK   58  A    between atoms: _146  and  _147
REMARK   59  A    between atoms: _146  and  _149
REMARK   60  A    between atoms: _149  and  _150
REMARK   61  A    between atoms: _155  and  _156
REMARK   62  A    between atoms: _158  and  _160
REMARK   63  A    between atoms: _160  and  _161
REMARK   64  A    between atoms: _160  and  _163
REMARK   65  A    between atoms: _163  and  _164
REMARK   66  A    between atoms: _164  and  _165
REMARK   67  A    between atoms: _167  and  _169
REMARK   68  A    between atoms: _169  and  _170
REMARK   69  A    between atoms: _169  and  _172
REMARK   70  A    between atoms: _172  and  _173
REMARK   71  A    between atoms: _173  and  _174
REMARK   72  A    between atoms: _177  and  _179
REMARK   73  A    between atoms: _179  and  _180
REMARK   74  A    between atoms: _179  and  _182
REMARK   75  A    between atoms: _182  and  _183
REMARK   76  A    between atoms: _183  and  _184
REMARK   77  A    between atoms: _187  and  _189
REMARK   78  A    between atoms: _189  and  _190
REMARK   79  A    between atoms: _189  and  _192
REMARK   80  A    between atoms: _192  and  _193
REMARK   81  A    between atoms: _198  and  _199
REMARK   82  A    between atoms: _201  and  _203
REMARK   83  A    between atoms: _203  and  _204
REMARK   84  A    between atoms: _203  and  _206
REMARK   85  A    between atoms: _206  and  _207
REMARK   86  A    between atoms: _207  and  _208
REMARK   87  A    between atoms: _208  and  _209
REMARK   88  A    between atoms: _218  and  _220
REMARK   89  A    between atoms: _220  and  _221
REMARK   90  A    between atoms: _220  and  _223
REMARK   91  A    between atoms: _223  and  _224
REMARK   92  A    between atoms: _224  and  _225
REMARK   93  A    between atoms: _228  and  _230
REMARK   94  A    between atoms: _230  and  _231
REMARK   95  A    between atoms: _230  and  _233
REMARK   96  A    between atoms: _233  and  _234
REMARK   97  A    between atoms: _237  and  _239
REMARK   98  A    between atoms: _239  and  _240
REMARK   99  A    between atoms: _239  and  _242
REMARK  100  A    between atoms: _242  and  _243
REMARK  101  A    between atoms: _243  and  _244
REMARK  102  A    between atoms: _249  and  _251
REMARK  103  A    between atoms: _251  and  _252
REMARK  104  A    between atoms: _251  and  _254
REMARK  105  A    between atoms: _254  and  _255
REMARK  106  A    between atoms: _255  and  _256
REMARK  107  A    between atoms: _256  and  _257
REMARK  108  A    between atoms: _257  and  _258
REMARK  109  A    between atoms: _262  and  _264
REMARK  110  A    between atoms: _264  and  _265
REMARK  111  A    between atoms: _268  and  _270
REMARK  112  A    between atoms: _270  and  _271
REMARK  113  A    between atoms: _273  and  _275
REMARK  114  A    between atoms: _275  and  _276
REMARK  115  A    between atoms: _275  and  _278
REMARK  116  A    between atoms: _278  and  _279
REMARK  117  A    between atoms: _284  and  _286
REMARK  118  A    between atoms: _286  and  _287
REMARK  119  A    between atoms: _286  and  _289
REMARK  120  A    between atoms: _289  and  _290
REMARK  121  A    between atoms: _290  and  _291
REMARK  122  A    between atoms: _294  and  _296
REMARK  123  A    between atoms: _296  and  _297
REMARK  124  A    between atoms: _296  and  _299
REMARK  125  A    between atoms: _299  and  _300
REMARK  126  A    between atoms: _300  and  _301
REMARK  127  A    between atoms: _306  and  _308
REMARK  128  A    between atoms: _308  and  _309
REMARK  129  A    between atoms: _308  and  _311
REMARK  130  A    between atoms: _311  and  _312
REMARK  131  A    between atoms: _314  and  _316
REMARK  132  A    between atoms: _316  and  _317
REMARK  133  A    between atoms: _316  and  _319
REMARK  134  A    between atoms: _319  and  _320
REMARK  135  A    between atoms: _326  and  _328
REMARK  136  A    between atoms: _328  and  _329
REMARK  137  A    between atoms: _328  and  _331
REMARK  138  A    between atoms: _334  and  _336
REMARK  139  A    between atoms: _336  and  _337
REMARK  140  A    between atoms: _336  and  _339
REMARK  141  A    between atoms: _339  and  _340
REMARK  142  A    between atoms: _343  and  _345
REMARK  143  A    between atoms: _345  and  _346
REMARK  144  A    between atoms: _345  and  _348
REMARK  145  A    between atoms: _348  and  _349
REMARK  146  A    between atoms: _352  and  _354
REMARK  147  A    between atoms: _354  and  _355
REMARK  148  A    between atoms: _354  and  _357
REMARK  149  A    between atoms: _357  and  _358
REMARK  150  A    between atoms: _361  and  _363
REMARK  151  A    between atoms: _363  and  _364
REMARK  152  A    between atoms: _363  and  _366
REMARK  153  A    between atoms: _366  and  _367
REMARK  154  A    between atoms: _370  and  _372
REMARK  155  A    between atoms: _372  and  _373
REMARK  156  A    between atoms: _372  and  _375
REMARK  157  A    between atoms: _375  and  _376
REMARK  158  A    between atoms: _381  and  _382
REMARK  159  A    between atoms: _384  and  _386
REMARK  160  A    between atoms: _386  and  _387
REMARK  161  A    between atoms: _386  and  _389
REMARK  162  A    between atoms: _389  and  _390
REMARK  163  A    between atoms: _395  and  _396
REMARK  164  A    between atoms: _398  and  _400
REMARK  165  A    between atoms: _400  and  _401
REMARK  166  A    between atoms: _400  and  _403
REMARK  167  A    between atoms: _403  and  _404
REMARK  168  A    between atoms: _407  and  _409
REMARK  169  A    between atoms: _409  and  _410
REMARK  170  A    between atoms: _409  and  _412
REMARK  171  A    between atoms: _412  and  _413
REMARK  172  A    between atoms: _416  and  _418
REMARK  173  A    between atoms: _418  and  _419
REMARK  174  A    between atoms: _418  and  _421
REMARK  175  A    between atoms: _421  and  _422
REMARK  176  A    between atoms: _422  and  _423
REMARK  177  A    between atoms: _428  and  _430
REMARK  178  A    between atoms: _430  and  _431
REMARK  179  A    between atoms: _430  and  _433
REMARK  180  A    between atoms: _436  and  _438
REMARK  181  A    between atoms: _438  and  _439
REMARK  182  A    between atoms: _438  and  _441
REMARK  183  A    between atoms: _441  and  _442
REMARK  184  A    between atoms: _445  and  _447
REMARK  185  A    between atoms: _447  and  _448
REMARK  186  A    between atoms: _447  and  _450
REMARK  187  A    between atoms: _450  and  _451
REMARK  188  A    between atoms: _453  and  _455
REMARK  189  A    between atoms: _455  and  _456
REMARK  190  A    between atoms: _458  and  _460
REMARK  191  A    between atoms: _460  and  _461
REMARK  192  A    between atoms: _460  and  _463
REMARK  193  A    between atoms: _463  and  _464
REMARK  194  A    between atoms: _464  and  _759
REMARK  195  A    between atoms: _465  and  _467
REMARK  196  A    between atoms: _467  and  _468
REMARK  197  A    between atoms: _467  and  _470
REMARK  198  A    between atoms: _470  and  _471
REMARK  199  A    between atoms: _476  and  _477
REMARK  200  A    between atoms: _479  and  _481
REMARK  201  A    between atoms: _481  and  _482
REMARK  202  A    between atoms: _481  and  _484
REMARK  203  A    between atoms: _484  and  _485
REMARK  204  A    between atoms: _485  and  _486
REMARK  205  A    between atoms: _491  and  _493
REMARK  206  A    between atoms: _493  and  _494
REMARK  207  A    between atoms: _493  and  _496
REMARK  208  A    between atoms: _496  and  _497
REMARK  209  A    between atoms: _497  and  _498
REMARK  210  A    between atoms: _503  and  _505
REMARK  211  A    between atoms: _505  and  _506
REMARK  212  A    between atoms: _505  and  _508
REMARK  213  A    between atoms: _508  and  _509
REMARK  214  A    between atoms: _514  and  _515
REMARK  215  A    between atoms: _517  and  _519
REMARK  216  A    between atoms: _519  and  _520
REMARK  217  A    between atoms: _523  and  _525
REMARK  218  A    between atoms: _525  and  _526
REMARK  219  A    between atoms: _525  and  _528
REMARK  220  A    between atoms: _528  and  _529
REMARK  221  A    between atoms: _534  and  _535
REMARK  222  A    between atoms: _537  and  _539
REMARK  223  A    between atoms: _539  and  _540
REMARK  224  A    between atoms: _539  and  _542
REMARK  225  A    between atoms: _542  and  _543
REMARK  226  A    between atoms: _548  and  _549
REMARK  227  A    between atoms: _551  and  _553
REMARK  228  A    between atoms: _553  and  _554
REMARK  229  A    between atoms: _553  and  _556
REMARK  230  A    between atoms: _556  and  _557
REMARK  231  A    between atoms: _560  and  _562
REMARK  232  A    between atoms: _562  and  _563
REMARK  233  A    between atoms: _562  and  _565
REMARK  234  A    between atoms: _565  and  _566
REMARK  235  A    between atoms: _576  and  _578
REMARK  236  A    between atoms: _578  and  _579
REMARK  237  A    between atoms: _582  and  _584
REMARK  238  A    between atoms: _584  and  _585
REMARK  239  A    between atoms: _588  and  _590
REMARK  240  A    between atoms: _590  and  _591
REMARK  241  A    between atoms: _590  and  _593
REMARK  242  A    between atoms: _593  and  _594
REMARK  243  A    between atoms: _597  and  _599
REMARK  244  A    between atoms: _599  and  _600
REMARK  245  A    between atoms: _599  and  _602
REMARK  246  A    between atoms: _602  and  _603
REMARK  247  A    between atoms: _606  and  _608
REMARK  248  A    between atoms: _608  and  _609
REMARK  249  A    between atoms: _608  and  _611
REMARK  250  A    between atoms: _611  and  _612
REMARK  251  A    between atoms: _615  and  _617
REMARK  252  A    between atoms: _617  and  _618
REMARK  253  A    between atoms: _617  and  _620
REMARK  254  A    between atoms: _620  and  _621
REMARK  255  A    between atoms: _621  and  _622
REMARK  256  A    between atoms: _622  and  _623
REMARK  257  A    between atoms: _623  and  _624
REMARK  258  A    between atoms: _628  and  _630
REMARK  259  A    between atoms: _630  and  _631
REMARK  260  A    between atoms: _630  and  _633
REMARK  261  A    between atoms: _633  and  _634
REMARK  262  A    between atoms: _639  and  _641
REMARK  263  A    between atoms: _641  and  _642
REMARK  264  A    between atoms: _641  and  _644
REMARK  265  A    between atoms: _644  and  _645
REMARK  266  A    between atoms: _645  and  _646
REMARK  267  A    between atoms: _646  and  _647
REMARK  268  A    between atoms: _647  and  _648
REMARK  269  A    between atoms: _652  and  _654
REMARK  270  A    between atoms: _654  and  _655
REMARK  271  A    between atoms: _654  and  _657
REMARK  272  A    between atoms: _657  and  _658
REMARK  273  A    between atoms: _668  and  _670
REMARK  274  A    between atoms: _670  and  _671
REMARK  275  A    between atoms: _674  and  _676
REMARK  276  A    between atoms: _676  and  _677
REMARK  277  A    between atoms: _679  and  _681
REMARK  278  A    between atoms: _681  and  _682
REMARK  279  A    between atoms: _681  and  _684
REMARK  280  A    between atoms: _684  and  _685
REMARK  281  A    between atoms: _685  and  _686
REMARK  282  A    between atoms: _689  and  _691
REMARK  283  A    between atoms: _691  and  _692
REMARK  284  A    between atoms: _695  and  _697
REMARK  285  A    between atoms: _697  and  _698
REMARK  286  A    between atoms: _697  and  _700
REMARK  287  A    between atoms: _700  and  _701
REMARK  288  A    between atoms: _701  and  _702
REMARK  289  A    between atoms: _702  and  _703
REMARK  290  A    between atoms: _712  and  _714
REMARK  291  A    between atoms: _714  and  _715
REMARK  292  A    between atoms: _714  and  _717
REMARK  293  A    between atoms: _717  and  _718
REMARK  294  A    between atoms: _721  and  _723
REMARK  295  A    between atoms: _723  and  _724
REMARK  296  A    between atoms: _723  and  _726
REMARK  297  A    between atoms: _726  and  _727
REMARK  298  A    between atoms: _732  and  _733
REMARK  299  A    between atoms: _735  and  _737
REMARK  300  A    between atoms: _737  and  _738
REMARK  301  A    between atoms: _737  and  _740
REMARK  302  A    between atoms: _740  and  _741
REMARK  303  A    between atoms: _744  and  _746
REMARK  304  A    between atoms: _746  and  _747
REMARK  305  A    between atoms: _746  and  _749
REMARK  306  A    between atoms: _749  and  _750
REMARK  307  A    between atoms: _753  and  _755
REMARK  308  A    between atoms: _755  and  _756
REMARK  309  A    between atoms: _755  and  _758
REMARK  310  A    between atoms: _758  and  _759
REMARK  311  A    between atoms: _760  and  _762
REMARK  312  A    between atoms: _762  and  _763
REMARK  313  A    between atoms: _762  and  _765
REMARK  314  A    between atoms: _768  and  _770
REMARK  315  A    between atoms: _770  and  _771
REMARK  316  A    between atoms: _770  and  _773
REMARK  317  A    between atoms: _773  and  _774
REMARK  318  A    between atoms: _774  and  _775
REMARK  319  A    between atoms: _778  and  _780
REMARK  320  A    between atoms: _780  and  _781
REMARK  321  A    between atoms: _780  and  _783
REMARK  322  A    between atoms: _783  and  _784
REMARK  323  A    between atoms: _794  and  _796
REMARK  324  A    between atoms: _796  and  _797
REMARK  325  A    between atoms: _796  and  _799
REMARK  326  A    between atoms: _799  and  _800
REMARK  327  A    between atoms: _803  and  _805
REMARK  328  A    between atoms: _805  and  _806
REMARK  329  A    between atoms: _805  and  _808
REMARK  330  A    between atoms: _808  and  _809
REMARK  331  A    between atoms: _809  and  _810
REMARK  332  A    between atoms: _810  and  _811
REMARK  333  A    between atoms: _820  and  _822
REMARK  334  A    between atoms: _822  and  _823
REMARK  335  A    between atoms: _822  and  _825
REMARK  336  A    between atoms: _825  and  _826
REMARK  337  A    between atoms: _831  and  _832
REMARK                            x       y       z     vdW  Elec       q    Type
REMARK                         _______ _______ _______ _____ _____    ______ ____
ROOT
ATOM      1  CG  TRP A   1      56.942  19.860 -16.992  0.00  0.00    -0.002 A 
ATOM      2  CD2 TRP A   1      56.799  20.070 -15.581  0.00  0.00    +0.013 A 
ATOM      3  CE3 TRP A   1      55.699  20.207 -14.728  0.00  0.00    +0.001 A 
ATOM      4  CZ3 TRP A   1      55.927  20.415 -13.377  0.00  0.00    +0.000 A 
ATOM      5  CH2 TRP A   1      57.231  20.479 -12.865  0.00  0.00    +0.001 A 
ATOM      6  CZ2 TRP A   1      58.328  20.347 -13.677  0.00  0.00    +0.017 A 
ATOM      7  CE2 TRP A   1      58.098  20.144 -15.037  0.00  0.00    +0.056 A 
ATOM      8  NE1 TRP A   1      58.985  19.985 -16.067  0.00  0.00    -0.352 N 
ATOM      9  HE1 TRP A   1      60.021  19.990 -15.978  0.00  0.00    +0.166 HD
ATOM     10  CD1 TRP A   1      58.284  19.818 -17.238  0.00  0.00    +0.068 A 
ENDROOT
BRANCH   1  11
ATOM     11  CB  TRP A   1      55.837  19.722 -17.994  0.00  0.00    +0.053 C 
BRANCH  11  12
ATOM     12  CA  TRP A   1      55.335  18.290 -18.172  0.00  0.00    +0.137 C 
BRANCH  12  13
ATOM     13  N   TRP A   1      56.448  17.404 -18.479  0.00  0.00    -0.239 NA
ATOM     14  H   TRP A   1      57.134  17.708 -19.199  0.00  0.00    +0.142 HD
ENDBRANCH  12  13
BRANCH  12  15
ATOM     15  C   TRP A   1      54.340  18.272 -19.317  0.00  0.00    +0.224 C 
ATOM     16  O   TRP A   1      54.697  17.948 -20.445  0.00  0.00    -0.287 OA
ENDBRANCH  12  15
ENDBRANCH  11  12
ENDBRANCH   1  11
TORSDOF 4
REMARK  Name = ../refined-set-2016/4pg9/4pg9_pocket.pdb
REMARK  337 active torsions:
REMARK  status: ('A' for Active; 'I' for Inactive)
REMARK    1  A    between atoms: _1  and  _3
REMARK    2  A    between atoms: _3  and  _4
REMARK    3  A    between atoms: _3  and  _6
REMARK    4  A    between atoms: _6  and  _7
REMARK    5  A    between atoms: _10  and  _12
REMARK    6  A    between atoms: _12  and  _13
REMARK    7  A    between atoms: _12  and  _15
REMARK    8  A    between atoms: _15  and  _16
REMARK    9  A    between atoms: _16  and  _17
REMARK   10  A    between atoms: _17  and  _18
REMARK   11  A    between atoms: _27  and  _29
REMARK   12  A    between atoms: _29  and  _30
REMARK   13  A    between atoms: _29  and  _32
REMARK   14  A    between atoms: _32  and  _33
REMARK   15  A    between atoms: _38  and  _39
REMARK   16  A    between atoms: _41  and  _43
REMARK   17  A    between atoms: _43  and  _44
REMARK   18  A    between atoms: _43  and  _46
REMARK   19  A    between atoms: _46  and  _47
REMARK   20  A    between atoms: _53  and  _55
REMARK   21  A    between atoms: _55  and  _56
REMARK   22  A    between atoms: _55  and  _58
REMARK   23  A    between atoms: _61  and  _63
REMARK   24  A    between atoms: _63  and  _64
REMARK   25  A    between atoms: _63  and  _66
REMARK   26  A    between atoms: _66  and  _67
REMARK   27  A    between atoms: _70  and  _72
REMARK   28  A    between atoms: _72  and  _73
REMARK   29  A    between atoms: _72  and  _75
REMARK   30  A    between atoms: _75  and  _76
REMARK   31  A    between atoms: _81  and  _82
REMARK   32  A    between atoms: _84  and  _86
REMARK   33  A    between atoms: _86  and  _87
REMARK   34  A    between atoms: _86  and  _89
REMARK   35  A    between atoms: _89  and  _90
REMARK   36  A    between atoms: _90  and  _91
REMARK   37  A    between atoms: _93  and  _95
REMARK   38  A    between atoms: _95  and  _96
REMARK   39  A    between atoms: _95  and  _98
REMARK   40  A    between atoms: _98  and  _99
REMARK   41  A    between atoms: _99  and  _100
REMARK   42  A    between atoms: _103  and  _105
REMARK   43  A    between atoms: _105  and  _106
REMARK   44  A    between atoms: _105  and  _108
REMARK   45  A    between atoms: _111  and  _113
REMARK   46  A    between atoms: _113  and  _114
REMARK   47  A    between atoms: _116  and  _118
REMARK   48  A    between atoms: _118  and  _119
REMARK   49  A    between atoms: _118  and  _121
REMARK   50  A    between atoms: _124  and  _126
REMARK   51  A    between atoms: _126  and  _127
REMARK   52  A    between atoms: _126  and  _129
REMARK   53  A    between atoms: _129  and  _130
REMARK   54  A    between atoms: _136  and  _138
REMARK   55  A    between atoms: _138  and  _139
REMARK   56  A    between atoms: _138  and  _141
REMARK   57  A    between atoms: _144  and  _146
REMARK   58  A    between atoms: _146  and  _147
REMARK   59  A    between atoms: _146  and  _149
REMARK   60  A    between atoms: _149  and  _150
REMARK   61  A    between atoms: _155  and  _156
REMARK   62  A    between atoms: _158  and  _160
REMARK   63  A    between atoms: _160  and  _161
REMARK   64  A    between atoms: _160  and  _163
REMARK   65  A    between atoms: _163  and  _164
REMARK   66  A    between atoms: _164  and  _165
REMARK   67  A    between atoms: _167  and  _169
REMARK   68  A    between atoms: _169  and  _170
REMARK   69  A    between atoms: _169  and  _172
REMARK   70  A    between atoms: _172  and  _173
REMARK   71  A    between atoms: _173  and  _174
REMARK   72  A    between atoms: _177  and  _179
REMARK   73  A    between atoms: _179  and  _180
REMARK   74  A    between atoms: _179  and  _182
REMARK   75  A    between atoms: _182  and  _183
REMARK   76  A    between atoms: _183  and  _184
REMARK   77  A    between atoms: _187  and  _189
REMARK   78  A    between atoms: _189  and  _190
REMARK   79  A    between atoms: _189  and  _192
REMARK   80  A    between atoms: _192  and  _193
REMARK   81  A    between atoms: _198  and  _199
REMARK   82  A    between atoms: _201  and  _203
REMARK   83  A    between atoms: _203  and  _204
REMARK   84  A    between atoms: _203  and  _206
REMARK   85  A    between atoms: _206  and  _207
REMARK   86  A    between atoms: _207  and  _208
REMARK   87  A    between atoms: _208  and  _209
REMARK   88  A    between atoms: _218  and  _220
REMARK   89  A    between atoms: _220  and  _221
REMARK   90  A    between atoms: _220  and  _223
REMARK   91  A    between atoms: _223  and  _224
REMARK   92  A    between atoms: _224  and  _225
REMARK   93  A    between atoms: _228  and  _230
REMARK   94  A    between atoms: _230  and  _231
REMARK   95  A    between atoms: _230  and  _233
REMARK   96  A    between atoms: _233  and  _234
REMARK   97  A    between atoms: _237  and  _239
REMARK   98  A    between atoms: _239  and  _240
REMARK   99  A    between atoms: _239  and  _242
REMARK  100  A    between atoms: _242  and  _243
REMARK  101  A    between atoms: _243  and  _244
REMARK  102  A    between atoms: _249  and  _251
REMARK  103  A    between atoms: _251  and  _252
REMARK  104  A    between atoms: _251  and  _254
REMARK  105  A    between atoms: _254  and  _255
REMARK  106  A    between atoms: _255  and  _256
REMARK  107  A    between atoms: _256  and  _257
REMARK  108  A    between atoms: _257  and  _258
REMARK  109  A    between atoms: _262  and  _264
REMARK  110  A    between atoms: _264  and  _265
REMARK  111  A    between atoms: _268  and  _270
REMARK  112  A    between atoms: _270  and  _271
REMARK  113  A    between atoms: _273  and  _275
REMARK  114  A    between atoms: _275  and  _276
REMARK  115  A    between atoms: _275  and  _278
REMARK  116  A    between atoms: _278  and  _279
REMARK  117  A    between atoms: _284  and  _286
REMARK  118  A    between atoms: _286  and  _287
REMARK  119  A    between atoms: _286  and  _289
REMARK  120  A    between atoms: _289  and  _290
REMARK  121  A    between atoms: _290  and  _291
REMARK  122  A    between atoms: _294  and  _296
REMARK  123  A    between atoms: _296  and  _297
REMARK  124  A    between atoms: _296  and  _299
REMARK  125  A    between atoms: _299  and  _300
REMARK  126  A    between atoms: _300  and  _301
REMARK  127  A    between atoms: _306  and  _308
REMARK  128  A    between atoms: _308  and  _309
REMARK  129  A    between atoms: _308  and  _311
REMARK  130  A    between atoms: _311  and  _312
REMARK  131  A    between atoms: _314  and  _316
REMARK  132  A    between atoms: _316  and  _317
REMARK  133  A    between atoms: _316  and  _319
REMARK  134  A    between atoms: _319  and  _320
REMARK  135  A    between atoms: _326  and  _328
REMARK  136  A    between atoms: _328  and  _329
REMARK  137  A    between atoms: _328  and  _331
REMARK  138  A    between atoms: _334  and  _336
REMARK  139  A    between atoms: _336  and  _337
REMARK  140  A    between atoms: _336  and  _339
REMARK  141  A    between atoms: _339  and  _340
REMARK  142  A    between atoms: _343  and  _345
REMARK  143  A    between atoms: _345  and  _346
REMARK  144  A    between atoms: _345  and  _348
REMARK  145  A    between atoms: _348  and  _349
REMARK  146  A    between atoms: _352  and  _354
REMARK  147  A    between atoms: _354  and  _355
REMARK  148  A    between atoms: _354  and  _357
REMARK  149  A    between atoms: _357  and  _358
REMARK  150  A    between atoms: _361  and  _363
REMARK  151  A    between atoms: _363  and  _364
REMARK  152  A    between atoms: _363  and  _366
REMARK  153  A    between atoms: _366  and  _367
REMARK  154  A    between atoms: _370  and  _372
REMARK  155  A    between atoms: _372  and  _373
REMARK  156  A    between atoms: _372  and  _375
REMARK  157  A    between atoms: _375  and  _376
REMARK  158  A    between atoms: _381  and  _382
REMARK  159  A    between atoms: _384  and  _386
REMARK  160  A    between atoms: _386  and  _387
REMARK  161  A    between atoms: _386  and  _389
REMARK  162  A    between atoms: _389  and  _390
REMARK  163  A    between atoms: _395  and  _396
REMARK  164  A    between atoms: _398  and  _400
REMARK  165  A    between atoms: _400  and  _401
REMARK  166  A    between atoms: _400  and  _403
REMARK  167  A    between atoms: _403  and  _404
REMARK  168  A    between atoms: _407  and  _409
REMARK  169  A    between atoms: _409  and  _410
REMARK  170  A    between atoms: _409  and  _412
REMARK  171  A    between atoms: _412  and  _413
REMARK  172  A    between atoms: _416  and  _418
REMARK  173  A    between atoms: _418  and  _419
REMARK  174  A    between atoms: _418  and  _421
REMARK  175  A    between atoms: _421  and  _422
REMARK  176  A    between atoms: _422  and  _423
REMARK  177  A    between atoms: _428  and  _430
REMARK  178  A    between atoms: _430  and  _431
REMARK  179  A    between atoms: _430  and  _433
REMARK  180  A    between atoms: _436  and  _438
REMARK  181  A    between atoms: _438  and  _439
REMARK  182  A    between atoms: _438  and  _441
REMARK  183  A    between atoms: _441  and  _442
REMARK  184  A    between atoms: _445  and  _447
REMARK  185  A    between atoms: _447  and  _448
REMARK  186  A    between atoms: _447  and  _450
REMARK  187  A    between atoms: _450  and  _451
REMARK  188  A    between atoms: _453  and  _455
REMARK  189  A    between atoms: _455  and  _456
REMARK  190  A    between atoms: _458  and  _460
REMARK  191  A    between atoms: _460  and  _461
REMARK  192  A    between atoms: _460  and  _463
REMARK  193  A    between atoms: _463  and  _464
REMARK  194  A    between atoms: _464  and  _759
REMARK  195  A    between atoms: _465  and  _467
REMARK  196  A    between atoms: _467  and  _468
REMARK  197  A    between atoms: _467  and  _470
REMARK  198  A    between atoms: _470  and  _471
REMARK  199  A    between atoms: _476  and  _477
REMARK  200  A    between atoms: _479  and  _481
REMARK  201  A    between atoms: _481  and  _482
REMARK  202  A    between atoms: _481  and  _484
REMARK  203  A    between atoms: _484  and  _485
REMARK  204  A    between atoms: _485  and  _486
REMARK  205  A    between atoms: _491  and  _493
REMARK  206  A    between atoms: _493  and  _494
REMARK  207  A    between atoms: _493  and  _496
REMARK  208  A    between atoms: _496  and  _497
REMARK  209  A    between atoms: _497  and  _498
REMARK  210  A    between atoms: _503  and  _505
REMARK  211  A    between atoms: _505  and  _506
REMARK  212  A    between atoms: _505  and  _508
REMARK  213  A    between atoms: _508  and  _509
REMARK  214  A    between atoms: _514  and  _515
REMARK  215  A    between atoms: _517  and  _519
REMARK  216  A    between atoms: _519  and  _520
REMARK  217  A    between atoms: _523  and  _525
REMARK  218  A    between atoms: _525  and  _526
REMARK  219  A    between atoms: _525  and  _528
REMARK  220  A    between atoms: _528  and  _529
REMARK  221  A    between atoms: _534  and  _535
REMARK  222  A    between atoms: _537  and  _539
REMARK  223  A    between atoms: _539  and  _540
REMARK  224  A    between atoms: _539  and  _542
REMARK  225  A    between atoms: _542  and  _543
REMARK  226  A    between atoms: _548  and  _549
REMARK  227  A    between atoms: _551  and  _553
REMARK  228  A    between atoms: _553  and  _554
REMARK  229  A    between atoms: _553  and  _556
REMARK  230  A    between atoms: _556  and  _557
REMARK  231  A    between atoms: _560  and  _562
REMARK  232  A    between atoms: _562  and  _563
REMARK  233  A    between atoms: _562  and  _565
REMARK  234  A    between atoms: _565  and  _566
REMARK  235  A    between atoms: _576  and  _578
REMARK  236  A    between atoms: _578  and  _579
REMARK  237  A    between atoms: _582  and  _584
REMARK  238  A    between atoms: _584  and  _585
REMARK  239  A    between atoms: _588  and  _590
REMARK  240  A    between atoms: _590  and  _591
REMARK  241  A    between atoms: _590  and  _593
REMARK  242  A    between atoms: _593  and  _594
REMARK  243  A    between atoms: _597  and  _599
REMARK  244  A    between atoms: _599  and  _600
REMARK  245  A    between atoms: _599  and  _602
REMARK  246  A    between atoms: _602  and  _603
REMARK  247  A    between atoms: _606  and  _608
REMARK  248  A    between atoms: _608  and  _609
REMARK  249  A    between atoms: _608  and  _611
REMARK  250  A    between atoms: _611  and  _612
REMARK  251  A    between atoms: _615  and  _617
REMARK  252  A    between atoms: _617  and  _618
REMARK  253  A    between atoms: _617  and  _620
REMARK  254  A    between atoms: _620  and  _621
REMARK  255  A    between atoms: _621  and  _622
REMARK  256  A    between atoms: _622  and  _623
REMARK  257  A    between atoms: _623  and  _624
REMARK  258  A    between atoms: _628  and  _630
REMARK  259  A    between atoms: _630  and  _631
REMARK  260  A    between atoms: _630  and  _633
REMARK  261  A    between atoms: _633  and  _634
REMARK  262  A    between atoms: _639  and  _641
REMARK  263  A    between atoms: _641  and  _642
REMARK  264  A    between atoms: _641  and  _644
REMARK  265  A    between atoms: _644  and  _645
REMARK  266  A    between atoms: _645  and  _646
REMARK  267  A    between atoms: _646  and  _647
REMARK  268  A    between atoms: _647  and  _648
REMARK  269  A    between atoms: _652  and  _654
REMARK  270  A    between atoms: _654  and  _655
REMARK  271  A    between atoms: _654  and  _657
REMARK  272  A    between atoms: _657  and  _658
REMARK  273  A    between atoms: _668  and  _670
REMARK  274  A    between atoms: _670  and  _671
REMARK  275  A    between atoms: _674  and  _676
REMARK  276  A    between atoms: _676  and  _677
REMARK  277  A    between atoms: _679  and  _681
REMARK  278  A    between atoms: _681  and  _682
REMARK  279  A    between atoms: _681  and  _684
REMARK  280  A    between atoms: _684  and  _685
REMARK  281  A    between atoms: _685  and  _686
REMARK  282  A    between atoms: _689  and  _691
REMARK  283  A    between atoms: _691  and  _692
REMARK  284  A    between atoms: _695  and  _697
REMARK  285  A    between atoms: _697  and  _698
REMARK  286  A    between atoms: _697  and  _700
REMARK  287  A    between atoms: _700  and  _701
REMARK  288  A    between atoms: _701  and  _702
REMARK  289  A    between atoms: _702  and  _703
REMARK  290  A    between atoms: _712  and  _714
REMARK  291  A    between atoms: _714  and  _715
REMARK  292  A    between atoms: _714  and  _717
REMARK  293  A    between atoms: _717  and  _718
REMARK  294  A    between atoms: _721  and  _723
REMARK  295  A    between atoms: _723  and  _724
REMARK  296  A    between atoms: _723  and  _726
REMARK  297  A    between atoms: _726  and  _727
REMARK  298  A    between atoms: _732  and  _733
REMARK  299  A    between atoms: _735  and  _737
REMARK  300  A    between atoms: _737  and  _738
REMARK  301  A    between atoms: _737  and  _740
REMARK  302  A    between atoms: _740  and  _741
REMARK  303  A    between atoms: _744  and  _746
REMARK  304  A    between atoms: _746  and  _747
REMARK  305  A    between atoms: _746  and  _749
REMARK  306  A    between atoms: _749  and  _750
REMARK  307  A    between atoms: _753  and  _755
REMARK  308  A    between atoms: _755  and  _756
REMARK  309  A    between atoms: _755  and  _758
REMARK  310  A    between atoms: _758  and  _759
REMARK  311  A    between atoms: _760  and  _762
REMARK  312  A    between atoms: _762  and  _763
REMARK  313  A    between atoms: _762  and  _765
REMARK  314  A    between atoms: _768  and  _770
REMARK  315  A    between atoms: _770  and  _771
REMARK  316  A    between atoms: _770  and  _773
REMARK  317  A    between atoms: _773  and  _774
REMARK  318  A    between atoms: _774  and  _775
REMARK  319  A    between atoms: _778  and  _780
REMARK  320  A    between atoms: _780  and  _781
REMARK  321  A    between atoms: _780  and  _783
REMARK  322  A    between atoms: _783  and  _784
REMARK  323  A    between atoms: _794  and  _796
REMARK  324  A    between atoms: _796  and  _797
REMARK  325  A    between atoms: _796  and  _799
REMARK  326  A    between atoms: _799  and  _800
REMARK  327  A    between atoms: _803  and  _805
REMARK  328  A    between atoms: _805  and  _806
REMARK  329  A    between atoms: _805  and  _808
REMARK  330  A    between atoms: _808  and  _809
REMARK  331  A    between atoms: _809  and  _810
REMARK  332  A    between atoms: _810  and  _811
REMARK  333  A    between atoms: _820  and  _822
REMARK  334  A    between atoms: _822  and  _823
REMARK  335  A    between atoms: _822  and  _825
REMARK  336  A    between atoms: _825  and  _826
REMARK  337  A    between atoms: _831  and  _832
REMARK                            x       y       z     vdW  Elec       q    Type
REMARK                         _______ _______ _______ _____ _____    ______ ____
ROOT
ATOM      1  CA  LYS A   6      57.520  24.008 -20.237  0.00  0.00    +0.149 C 
ENDROOT
BRANCH   1   2
ATOM      2  C   LYS A   6      58.950  23.998 -20.781  0.00  0.00    +0.241 C 
ATOM      3  O   LYS A   6      59.810  23.278 -20.262  0.00  0.00    -0.273 OA
ATOM      4  N   HIS A   7      59.202  24.802 -21.812  0.00  0.00    -0.297 N 
ATOM      5  H   HIS A   7      58.428  25.364 -22.221  0.00  0.00    +0.150 HD
BRANCH   4   6
ATOM      6  CA  HIS A   7      60.544  24.912 -22.382  0.00  0.00    +0.155 C 
BRANCH   6   7
ATOM      7  C   HIS A   7      61.558  25.423 -21.358  0.00  0.00    +0.241 C 
ATOM      8  N   LYS A   8      61.181  26.418 -20.554  0.00  0.00    -0.297 N 
ATOM      9  H   LYS A   8      60.239  26.841 -20.677  0.00  0.00    +0.150 HD
ATOM     10  O   HIS A   7      62.669  24.912 -21.297  0.00  0.00    -0.273 OA
BRANCH   8  11
ATOM     11  CA  LYS A   8      62.067  26.931 -19.497  0.00  0.00    +0.149 C 
BRANCH  11  12
ATOM     12  C   LYS A   8      62.479  25.815 -18.541  0.00  0.00    +0.241 C 
ATOM     13  N   TRP A   9      61.481  25.083 -18.054  0.00  0.00    -0.298 N 
ATOM     14  H   TRP A   9      60.519  25.252 -18.411  0.00  0.00    +0.150 HD
ATOM     15  O   LYS A   8      63.663  25.625 -18.260  0.00  0.00    -0.273 OA
BRANCH  13  16
ATOM     16  CA  TRP A   9      61.679  24.051 -17.038  0.00  0.00    +0.141 C 
BRANCH  16  17
ATOM     17  C   TRP A   9      62.440  22.827 -17.560  0.00  0.00    +0.227 C 
ATOM     18  O   TRP A   9      63.133  22.150 -16.797  0.00  0.00    -0.286 OA
ENDBRANCH  16  17
BRANCH  16  19
ATOM     19  CB  TRP A   9      60.322  23.647 -16.450  0.00  0.00    +0.056 C 
BRANCH  19  20
ATOM     20  CG  TRP A   9      59.693  24.727 -15.590  0.00  0.00    -0.002 A 
ATOM     21  CD2 TRP A   9      58.431  24.663 -14.915  0.00  0.00    +0.013 A 
ATOM     22  CE2 TRP A   9      58.252  25.895 -14.247  0.00  0.00    +0.056 A 
ATOM     23  CZ2 TRP A   9      57.120  26.173 -13.478  0.00  0.00    +0.017 A 
ATOM     24  CH2 TRP A   9      56.160  25.200 -13.388  0.00  0.00    +0.001 A 
ATOM     25  CZ3 TRP A   9      56.304  23.966 -14.041  0.00  0.00    +0.000 A 
ATOM     26  NE1 TRP A   9      59.347  26.671 -14.513  0.00  0.00    -0.352 N 
ATOM     27  HE1 TRP A   9      59.505  27.636 -14.159  0.00  0.00    +0.166 HD
ATOM     28  CE3 TRP A   9      57.436  23.685 -14.805  0.00  0.00    +0.001 A 
ATOM     29  CD1 TRP A   9      60.202  25.969 -15.322  0.00  0.00    +0.068 A 
ENDBRANCH  19  20
ENDBRANCH  16  19
ENDBRANCH  13  16
ENDBRANCH  11  12
BRANCH  11  30
ATOM     30  CB  LYS A   8      61.385  28.040 -18.684  0.00  0.00    +0.029 C 
BRANCH  30  31
ATOM     31  CG  LYS A   8      61.190  29.369 -19.404  0.00  0.00    +0.000 C 
BRANCH  31  32
ATOM     32  CD  LYS A   8      60.595  30.399 -18.452  0.00  0.00    -0.024 C 
BRANCH  32  33
ATOM     33  CE  LYS A   8      60.447  31.767 -19.097  0.00  0.00    -0.086 C 
BRANCH  33  34
ATOM     34  NZ  LYS A   8      60.132  32.813 -18.086  0.00  0.00    +0.380 N 
ATOM     35  HZ1 LYS A   8      60.900  32.859 -17.386  0.00  0.00    -0.089 HD
ATOM     36  HZ2 LYS A   8      59.239  32.574 -17.609  0.00  0.00    -0.089 HD
ATOM     37  HZ3 LYS A   8      60.038  33.734 -18.560  0.00  0.00    -0.089 HD
ENDBRANCH  33  34
ENDBRANCH  32  33
ENDBRANCH  31  32
ENDBRANCH  30  31
ENDBRANCH  11  30
ENDBRANCH   8  11
ENDBRANCH   6   7
BRANCH   6  38
ATOM     38  CB  HIS A   7      60.554  25.818 -23.614  0.00  0.00    +0.076 C 
BRANCH  38  39
ATOM     39  CG  HIS A   7      59.770  25.284 -24.775  0.00  0.00    +0.082 A 
ATOM     40  ND1 HIS A   7      59.612  23.935 -25.019  0.00  0.00    -0.227 NA
ATOM     41  CE1 HIS A   7      58.886  23.770 -26.110  0.00  0.00    +0.199 A 
ATOM     42  NE2 HIS A   7      58.581  24.961 -26.592  0.00  0.00    -0.221 NA
ATOM     43  CD2 HIS A   7      59.120  25.925 -25.776  0.00  0.00    +0.115 A 
ENDBRANCH  38  39
ENDBRANCH   6  38
ENDBRANCH   4   6
ENDBRANCH   1   2
BRANCH   1  46
ATOM     44  C   THR A   5      57.647  26.220 -19.216  0.00  0.00    +0.243 C 
ATOM     45  O   THR A   5      58.660  25.922 -18.570  0.00  0.00    -0.273 OA
ATOM     46  N   LYS A   6      57.048  25.378 -20.058  0.00  0.00    -0.297 N 
ATOM     47  H   LYS A   6      56.224  25.705 -20.601  0.00  0.00    +0.150 HD
BRANCH  44  48
ATOM     48  CA  THR A   5      57.023  27.610 -19.084  0.00  0.00    +0.176 C 
BRANCH  48  50
ATOM     49  C   ILE A   4      57.437  28.246 -21.408  0.00  0.00    +0.241 C 
ATOM     50  N   THR A   5      56.597  28.125 -20.380  0.00  0.00    -0.295 N 
ATOM     51  H   THR A   5      55.604  28.407 -20.507  0.00  0.00    +0.150 HD
ATOM     52  O   ILE A   4      58.642  27.994 -21.334  0.00  0.00    -0.273 OA
BRANCH  49  53
ATOM     53  CA  ILE A   4      56.826  28.725 -22.721  0.00  0.00    +0.149 C 
BRANCH  53  55
ATOM     54  C   LEU A   3      55.675  26.626 -23.200  0.00  0.00    +0.241 C 
ATOM     55  N   ILE A   4      55.621  27.943 -23.003  0.00  0.00    -0.297 N 
ATOM     56  H   ILE A   4      54.701  28.426 -23.051  0.00  0.00    +0.150 HD
ATOM     57  O   LEU A   3      56.730  26.003 -23.244  0.00  0.00    -0.273 OA
BRANCH  54  58
ATOM     58  CA  LEU A   3      54.342  25.895 -23.377  0.00  0.00    +0.149 C 
BRANCH  58  61
ATOM     59  C   ALA A   2      53.398  26.434 -21.198  0.00  0.00    +0.241 C 
ATOM     60  O   ALA A   2      54.287  25.814 -20.622  0.00  0.00    -0.273 OA
ATOM     61  N   LEU A   3      53.305  26.476 -22.524  0.00  0.00    -0.297 N 
ATOM     62  H   LEU A   3      52.479  26.931 -22.963  0.00  0.00    +0.150 HD
BRANCH  59  63
ATOM     63  CA  ALA A   2      52.334  27.188 -20.389  0.00  0.00    +0.149 C 
ATOM     64  CB  ALA A   2      51.266  26.222 -19.896  0.00  0.00    +0.031 C 
BRANCH  63  66
ATOM     65  C   ALA A   1      52.398  29.370 -21.500  0.00  0.00    +0.238 C 
ATOM     66  N   ALA A   2      51.713  28.291 -21.129  0.00  0.00    -0.297 N 
ATOM     67  H   ALA A   2      50.704  28.228 -21.372  0.00  0.00    +0.150 HD
ATOM     68  O   ALA A   1      53.590  29.532 -21.239  0.00  0.00    -0.274 OA
BRANCH  65  69
ATOM     69  CA  ALA A   1      51.627  30.414 -22.306  0.00  0.00    +0.145 C 
ATOM     70  CB  ALA A   1      50.613  31.122 -21.430  0.00  0.00    +0.028 C 
BRANCH  69  71
ATOM     71  N   ALA A   1      50.967  29.754 -23.426  0.00  0.00    -0.238 NA
ATOM     72  H   ALA A   1      49.928  29.735 -23.469  0.00  0.00    +0.142 HD
ENDBRANCH  69  71
ENDBRANCH  65  69
ENDBRANCH  63  66
ENDBRANCH  59  63
ENDBRANCH  58  61
BRANCH  58  73
ATOM     73  CB  LEU A   3      53.922  25.922 -24.847  0.00  0.00    +0.029 C 
BRANCH  73  74
ATOM     74  CG  LEU A   3      54.873  25.254 -25.851  0.00  0.00    +0.002 C 
ATOM     75  CD2 LEU A   3      55.210  23.824 -25.457  0.00  0.00    +0.000 C 
ATOM     76  CD1 LEU A   3      54.271  25.283 -27.244  0.00  0.00    +0.000 C 
ENDBRANCH  73  74
ENDBRANCH  58  73
ENDBRANCH  54  58
ENDBRANCH  53  55
BRANCH  53  77
ATOM     77  CB  ILE A   4      56.544  30.242 -22.620  0.00  0.00    +0.027 C 
ATOM     78  CG2 ILE A   4      57.815  30.996 -22.242  0.00  0.00    +0.002 C 
BRANCH  77  79
ATOM     79  CG1 ILE A   4      56.014  30.793 -23.948  0.00  0.00    +0.002 C 
ATOM     80  CD1 ILE A   4      55.328  32.138 -23.818  0.00  0.00    +0.000 C 
ENDBRANCH  77  79
ENDBRANCH  53  77
ENDBRANCH  49  53
ENDBRANCH  48  50
BRANCH  48  81
ATOM     81  CB  THR A   5      55.838  27.553 -18.096  0.00  0.00    +0.137 C 
ATOM     82  CG2 THR A   5      56.283  27.088 -16.710  0.00  0.00    +0.034 C 
BRANCH  81  83
ATOM     83  OG1 THR A   5      55.258  28.855 -17.985  0.00  0.00    -0.382 OA
ATOM     84  HG1 THR A   5      55.939  29.491 -17.652  0.00  0.00    +0.210 HD
ENDBRANCH  81  83
ENDBRANCH  48  81
ENDBRANCH  44  48
ENDBRANCH   1  46
BRANCH   1  85
ATOM     85  CB  LYS A   6      56.574  23.228 -21.159  0.00  0.00    +0.029 C 
BRANCH  85  86
ATOM     86  CG  LYS A   6      57.007  21.802 -21.465  0.00  0.00    +0.000 C 
BRANCH  86  87
ATOM     87  CD  LYS A   6      55.997  21.103 -22.359  0.00  0.00    -0.024 C 
BRANCH  87  88
ATOM     88  CE  LYS A   6      56.271  19.612 -22.470  0.00  0.00    -0.086 C 
BRANCH  88  89
ATOM     89  NZ  LYS A   6      57.342  19.340 -23.459  0.00  0.00    +0.380 N 
ATOM     90  HZ1 LYS A   6      58.216  19.819 -23.162  0.00  0.00    -0.089 HD
ATOM     91  HZ2 LYS A   6      57.509  18.315 -23.515  0.00  0.00    -0.089 HD
ATOM     92  HZ3 LYS A   6      57.050  19.696 -24.391  0.00  0.00    -0.089 HD
ENDBRANCH  88  89
ENDBRANCH  87  88
ENDBRANCH  86  87
ENDBRANCH  85  86
ENDBRANCH   1  85
TORSDOF 38
REMARK  Name = ../refined-set-2016/4pg9/4pg9_pocket.pdb
REMARK  337 active torsions:
REMARK  status: ('A' for Active; 'I' for Inactive)
REMARK    1  A    between atoms: _1  and  _3
REMARK    2  A    between atoms: _3  and  _4
REMARK    3  A    between atoms: _3  and  _6
REMARK    4  A    between atoms: _6  and  _7
REMARK    5  A    between atoms: _10  and  _12
REMARK    6  A    between atoms: _12  and  _13
REMARK    7  A    between atoms: _12  and  _15
REMARK    8  A    between atoms: _15  and  _16
REMARK    9  A    between atoms: _16  and  _17
REMARK   10  A    between atoms: _17  and  _18
REMARK   11  A    between atoms: _27  and  _29
REMARK   12  A    between atoms: _29  and  _30
REMARK   13  A    between atoms: _29  and  _32
REMARK   14  A    between atoms: _32  and  _33
REMARK   15  A    between atoms: _38  and  _39
REMARK   16  A    between atoms: _41  and  _43
REMARK   17  A    between atoms: _43  and  _44
REMARK   18  A    between atoms: _43  and  _46
REMARK   19  A    between atoms: _46  and  _47
REMARK   20  A    between atoms: _53  and  _55
REMARK   21  A    between atoms: _55  and  _56
REMARK   22  A    between atoms: _55  and  _58
REMARK   23  A    between atoms: _61  and  _63
REMARK   24  A    between atoms: _63  and  _64
REMARK   25  A    between atoms: _63  and  _66
REMARK   26  A    between atoms: _66  and  _67
REMARK   27  A    between atoms: _70  and  _72
REMARK   28  A    between atoms: _72  and  _73
REMARK   29  A    between atoms: _72  and  _75
REMARK   30  A    between atoms: _75  and  _76
REMARK   31  A    between atoms: _81  and  _82
REMARK   32  A    between atoms: _84  and  _86
REMARK   33  A    between atoms: _86  and  _87
REMARK   34  A    between atoms: _86  and  _89
REMARK   35  A    between atoms: _89  and  _90
REMARK   36  A    between atoms: _90  and  _91
REMARK   37  A    between atoms: _93  and  _95
REMARK   38  A    between atoms: _95  and  _96
REMARK   39  A    between atoms: _95  and  _98
REMARK   40  A    between atoms: _98  and  _99
REMARK   41  A    between atoms: _99  and  _100
REMARK   42  A    between atoms: _103  and  _105
REMARK   43  A    between atoms: _105  and  _106
REMARK   44  A    between atoms: _105  and  _108
REMARK   45  A    between atoms: _111  and  _113
REMARK   46  A    between atoms: _113  and  _114
REMARK   47  A    between atoms: _116  and  _118
REMARK   48  A    between atoms: _118  and  _119
REMARK   49  A    between atoms: _118  and  _121
REMARK   50  A    between atoms: _124  and  _126
REMARK   51  A    between atoms: _126  and  _127
REMARK   52  A    between atoms: _126  and  _129
REMARK   53  A    between atoms: _129  and  _130
REMARK   54  A    between atoms: _136  and  _138
REMARK   55  A    between atoms: _138  and  _139
REMARK   56  A    between atoms: _138  and  _141
REMARK   57  A    between atoms: _144  and  _146
REMARK   58  A    between atoms: _146  and  _147
REMARK   59  A    between atoms: _146  and  _149
REMARK   60  A    between atoms: _149  and  _150
REMARK   61  A    between atoms: _155  and  _156
REMARK   62  A    between atoms: _158  and  _160
REMARK   63  A    between atoms: _160  and  _161
REMARK   64  A    between atoms: _160  and  _163
REMARK   65  A    between atoms: _163  and  _164
REMARK   66  A    between atoms: _164  and  _165
REMARK   67  A    between atoms: _167  and  _169
REMARK   68  A    between atoms: _169  and  _170
REMARK   69  A    between atoms: _169  and  _172
REMARK   70  A    between atoms: _172  and  _173
REMARK   71  A    between atoms: _173  and  _174
REMARK   72  A    between atoms: _177  and  _179
REMARK   73  A    between atoms: _179  and  _180
REMARK   74  A    between atoms: _179  and  _182
REMARK   75  A    between atoms: _182  and  _183
REMARK   76  A    between atoms: _183  and  _184
REMARK   77  A    between atoms: _187  and  _189
REMARK   78  A    between atoms: _189  and  _190
REMARK   79  A    between atoms: _189  and  _192
REMARK   80  A    between atoms: _192  and  _193
REMARK   81  A    between atoms: _198  and  _199
REMARK   82  A    between atoms: _201  and  _203
REMARK   83  A    between atoms: _203  and  _204
REMARK   84  A    between atoms: _203  and  _206
REMARK   85  A    between atoms: _206  and  _207
REMARK   86  A    between atoms: _207  and  _208
REMARK   87  A    between atoms: _208  and  _209
REMARK   88  A    between atoms: _218  and  _220
REMARK   89  A    between atoms: _220  and  _221
REMARK   90  A    between atoms: _220  and  _223
REMARK   91  A    between atoms: _223  and  _224
REMARK   92  A    between atoms: _224  and  _225
REMARK   93  A    between atoms: _228  and  _230
REMARK   94  A    between atoms: _230  and  _231
REMARK   95  A    between atoms: _230  and  _233
REMARK   96  A    between atoms: _233  and  _234
REMARK   97  A    between atoms: _237  and  _239
REMARK   98  A    between atoms: _239  and  _240
REMARK   99  A    between atoms: _239  and  _242
REMARK  100  A    between atoms: _242  and  _243
REMARK  101  A    between atoms: _243  and  _244
REMARK  102  A    between atoms: _249  and  _251
REMARK  103  A    between atoms: _251  and  _252
REMARK  104  A    between atoms: _251  and  _254
REMARK  105  A    between atoms: _254  and  _255
REMARK  106  A    between atoms: _255  and  _256
REMARK  107  A    between atoms: _256  and  _257
REMARK  108  A    between atoms: _257  and  _258
REMARK  109  A    between atoms: _262  and  _264
REMARK  110  A    between atoms: _264  and  _265
REMARK  111  A    between atoms: _268  and  _270
REMARK  112  A    between atoms: _270  and  _271
REMARK  113  A    between atoms: _273  and  _275
REMARK  114  A    between atoms: _275  and  _276
REMARK  115  A    between atoms: _275  and  _278
REMARK  116  A    between atoms: _278  and  _279
REMARK  117  A    between atoms: _284  and  _286
REMARK  118  A    between atoms: _286  and  _287
REMARK  119  A    between atoms: _286  and  _289
REMARK  120  A    between atoms: _289  and  _290
REMARK  121  A    between atoms: _290  and  _291
REMARK  122  A    between atoms: _294  and  _296
REMARK  123  A    between atoms: _296  and  _297
REMARK  124  A    between atoms: _296  and  _299
REMARK  125  A    between atoms: _299  and  _300
REMARK  126  A    between atoms: _300  and  _301
REMARK  127  A    between atoms: _306  and  _308
REMARK  128  A    between atoms: _308  and  _309
REMARK  129  A    between atoms: _308  and  _311
REMARK  130  A    between atoms: _311  and  _312
REMARK  131  A    between atoms: _314  and  _316
REMARK  132  A    between atoms: _316  and  _317
REMARK  133  A    between atoms: _316  and  _319
REMARK  134  A    between atoms: _319  and  _320
REMARK  135  A    between atoms: _326  and  _328
REMARK  136  A    between atoms: _328  and  _329
REMARK  137  A    between atoms: _328  and  _331
REMARK  138  A    between atoms: _334  and  _336
REMARK  139  A    between atoms: _336  and  _337
REMARK  140  A    between atoms: _336  and  _339
REMARK  141  A    between atoms: _339  and  _340
REMARK  142  A    between atoms: _343  and  _345
REMARK  143  A    between atoms: _345  and  _346
REMARK  144  A    between atoms: _345  and  _348
REMARK  145  A    between atoms: _348  and  _349
REMARK  146  A    between atoms: _352  and  _354
REMARK  147  A    between atoms: _354  and  _355
REMARK  148  A    between atoms: _354  and  _357
REMARK  149  A    between atoms: _357  and  _358
REMARK  150  A    between atoms: _361  and  _363
REMARK  151  A    between atoms: _363  and  _364
REMARK  152  A    between atoms: _363  and  _366
REMARK  153  A    between atoms: _366  and  _367
REMARK  154  A    between atoms: _370  and  _372
REMARK  155  A    between atoms: _372  and  _373
REMARK  156  A    between atoms: _372  and  _375
REMARK  157  A    between atoms: _375  and  _376
REMARK  158  A    between atoms: _381  and  _382
REMARK  159  A    between atoms: _384  and  _386
REMARK  160  A    between atoms: _386  and  _387
REMARK  161  A    between atoms: _386  and  _389
REMARK  162  A    between atoms: _389  and  _390
REMARK  163  A    between atoms: _395  and  _396
REMARK  164  A    between atoms: _398  and  _400
REMARK  165  A    between atoms: _400  and  _401
REMARK  166  A    between atoms: _400  and  _403
REMARK  167  A    between atoms: _403  and  _404
REMARK  168  A    between atoms: _407  and  _409
REMARK  169  A    between atoms: _409  and  _410
REMARK  170  A    between atoms: _409  and  _412
REMARK  171  A    between atoms: _412  and  _413
REMARK  172  A    between atoms: _416  and  _418
REMARK  173  A    between atoms: _418  and  _419
REMARK  174  A    between atoms: _418  and  _421
REMARK  175  A    between atoms: _421  and  _422
REMARK  176  A    between atoms: _422  and  _423
REMARK  177  A    between atoms: _428  and  _430
REMARK  178  A    between atoms: _430  and  _431
REMARK  179  A    between atoms: _430  and  _433
REMARK  180  A    between atoms: _436  and  _438
REMARK  181  A    between atoms: _438  and  _439
REMARK  182  A    between atoms: _438  and  _441
REMARK  183  A    between atoms: _441  and  _442
REMARK  184  A    between atoms: _445  and  _447
REMARK  185  A    between atoms: _447  and  _448
REMARK  186  A    between atoms: _447  and  _450
REMARK  187  A    between atoms: _450  and  _451
REMARK  188  A    between atoms: _453  and  _455
REMARK  189  A    between atoms: _455  and  _456
REMARK  190  A    between atoms: _458  and  _460
REMARK  191  A    between atoms: _460  and  _461
REMARK  192  A    between atoms: _460  and  _463
REMARK  193  A    between atoms: _463  and  _464
REMARK  194  A    between atoms: _464  and  _759
REMARK  195  A    between atoms: _465  and  _467
REMARK  196  A    between atoms: _467  and  _468
REMARK  197  A    between atoms: _467  and  _470
REMARK  198  A    between atoms: _470  and  _471
REMARK  199  A    between atoms: _476  and  _477
REMARK  200  A    between atoms: _479  and  _481
REMARK  201  A    between atoms: _481  and  _482
REMARK  202  A    between atoms: _481  and  _484
REMARK  203  A    between atoms: _484  and  _485
REMARK  204  A    between atoms: _485  and  _486
REMARK  205  A    between atoms: _491  and  _493
REMARK  206  A    between atoms: _493  and  _494
REMARK  207  A    between atoms: _493  and  _496
REMARK  208  A    between atoms: _496  and  _497
REMARK  209  A    between atoms: _497  and  _498
REMARK  210  A    between atoms: _503  and  _505
REMARK  211  A    between atoms: _505  and  _506
REMARK  212  A    between atoms: _505  and  _508
REMARK  213  A    between atoms: _508  and  _509
REMARK  214  A    between atoms: _514  and  _515
REMARK  215  A    between atoms: _517  and  _519
REMARK  216  A    between atoms: _519  and  _520
REMARK  217  A    between atoms: _523  and  _525
REMARK  218  A    between atoms: _525  and  _526
REMARK  219  A    between atoms: _525  and  _528
REMARK  220  A    between atoms: _528  and  _529
REMARK  221  A    between atoms: _534  and  _535
REMARK  222  A    between atoms: _537  and  _539
REMARK  223  A    between atoms: _539  and  _540
REMARK  224  A    between atoms: _539  and  _542
REMARK  225  A    between atoms: _542  and  _543
REMARK  226  A    between atoms: _548  and  _549
REMARK  227  A    between atoms: _551  and  _553
REMARK  228  A    between atoms: _553  and  _554
REMARK  229  A    between atoms: _553  and  _556
REMARK  230  A    between atoms: _556  and  _557
REMARK  231  A    between atoms: _560  and  _562
REMARK  232  A    between atoms: _562  and  _563
REMARK  233  A    between atoms: _562  and  _565
REMARK  234  A    between atoms: _565  and  _566
REMARK  235  A    between atoms: _576  and  _578
REMARK  236  A    between atoms: _578  and  _579
REMARK  237  A    between atoms: _582  and  _584
REMARK  238  A    between atoms: _584  and  _585
REMARK  239  A    between atoms: _588  and  _590
REMARK  240  A    between atoms: _590  and  _591
REMARK  241  A    between atoms: _590  and  _593
REMARK  242  A    between atoms: _593  and  _594
REMARK  243  A    between atoms: _597  and  _599
REMARK  244  A    between atoms: _599  and  _600
REMARK  245  A    between atoms: _599  and  _602
REMARK  246  A    between atoms: _602  and  _603
REMARK  247  A    between atoms: _606  and  _608
REMARK  248  A    between atoms: _608  and  _609
REMARK  249  A    between atoms: _608  and  _611
REMARK  250  A    between atoms: _611  and  _612
REMARK  251  A    between atoms: _615  and  _617
REMARK  252  A    between atoms: _617  and  _618
REMARK  253  A    between atoms: _617  and  _620
REMARK  254  A    between atoms: _620  and  _621
REMARK  255  A    between atoms: _621  and  _622
REMARK  256  A    between atoms: _622  and  _623
REMARK  257  A    between atoms: _623  and  _624
REMARK  258  A    between atoms: _628  and  _630
REMARK  259  A    between atoms: _630  and  _631
REMARK  260  A    between atoms: _630  and  _633
REMARK  261  A    between atoms: _633  and  _634
REMARK  262  A    between atoms: _639  and  _641
REMARK  263  A    between atoms: _641  and  _642
REMARK  264  A    between atoms: _641  and  _644
REMARK  265  A    between atoms: _644  and  _645
REMARK  266  A    between atoms: _645  and  _646
REMARK  267  A    between atoms: _646  and  _647
REMARK  268  A    between atoms: _647  and  _648
REMARK  269  A    between atoms: _652  and  _654
REMARK  270  A    between atoms: _654  and  _655
REMARK  271  A    between atoms: _654  and  _657
REMARK  272  A    between atoms: _657  and  _658
REMARK  273  A    between atoms: _668  and  _670
REMARK  274  A    between atoms: _670  and  _671
REMARK  275  A    between atoms: _674  and  _676
REMARK  276  A    between atoms: _676  and  _677
REMARK  277  A    between atoms: _679  and  _681
REMARK  278  A    between atoms: _681  and  _682
REMARK  279  A    between atoms: _681  and  _684
REMARK  280  A    between atoms: _684  and  _685
REMARK  281  A    between atoms: _685  and  _686
REMARK  282  A    between atoms: _689  and  _691
REMARK  283  A    between atoms: _691  and  _692
REMARK  284  A    between atoms: _695  and  _697
REMARK  285  A    between atoms: _697  and  _698
REMARK  286  A    between atoms: _697  and  _700
REMARK  287  A    between atoms: _700  and  _701
REMARK  288  A    between atoms: _701  and  _702
REMARK  289  A    between atoms: _702  and  _703
REMARK  290  A    between atoms: _712  and  _714
REMARK  291  A    between atoms: _714  and  _715
REMARK  292  A    between atoms: _714  and  _717
REMARK  293  A    between atoms: _717  and  _718
REMARK  294  A    between atoms: _721  and  _723
REMARK  295  A    between atoms: _723  and  _724
REMARK  296  A    between atoms: _723  and  _726
REMARK  297  A    between atoms: _726  and  _727
REMARK  298  A    between atoms: _732  and  _733
REMARK  299  A    between atoms: _735  and  _737
REMARK  300  A    between atoms: _737  and  _738
REMARK  301  A    between atoms: _737  and  _740
REMARK  302  A    between atoms: _740  and  _741
REMARK  303  A    between atoms: _744  and  _746
REMARK  304  A    between atoms: _746  and  _747
REMARK  305  A    between atoms: _746  and  _749
REMARK  306  A    between atoms: _749  and  _750
REMARK  307  A    between atoms: _753  and  _755
REMARK  308  A    between atoms: _755  and  _756
REMARK  309  A    between atoms: _755  and  _758
REMARK  310  A    between atoms: _758  and  _759
REMARK  311  A    between atoms: _760  and  _762
REMARK  312  A    between atoms: _762  and  _763
REMARK  313  A    between atoms: _762  and  _765
REMARK  314  A    between atoms: _768  and  _770
REMARK  315  A    between atoms: _770  and  _771
REMARK  316  A    between atoms: _770  and  _773
REMARK  317  A    between atoms: _773  and  _774
REMARK  318  A    between atoms: _774  and  _775
REMARK  319  A    between atoms: _778  and  _780
REMARK  320  A    between atoms: _780  and  _781
REMARK  321  A    between atoms: _780  and  _783
REMARK  322  A    between atoms: _783  and  _784
REMARK  323  A    between atoms: _794  and  _796
REMARK  324  A    between atoms: _796  and  _797
REMARK  325  A    between atoms: _796  and  _799
REMARK  326  A    between atoms: _799  and  _800
REMARK  327  A    between atoms: _803  and  _805
REMARK  328  A    between atoms: _805  and  _806
REMARK  329  A    between atoms: _805  and  _808
REMARK  330  A    between atoms: _808  and  _809
REMARK  331  A    between atoms: _809  and  _810
REMARK  332  A    between atoms: _810  and  _811
REMARK  333  A    between atoms: _820  and  _822
REMARK  334  A    between atoms: _822  and  _823
REMARK  335  A    between atoms: _822  and  _825
REMARK  336  A    between atoms: _825  and  _826
REMARK  337  A    between atoms: _831  and  _832
REMARK                            x       y       z     vdW  Elec       q    Type
REMARK                         _______ _______ _______ _____ _____    ______ ____
ROOT
ATOM      1  CA  GLU A   3      63.300  21.175 -13.145  0.00  0.00    +0.149 C 
ENDROOT
BRANCH   1   4
ATOM      2  C   GLY A   2      65.164  20.275 -14.457  0.00  0.00    +0.243 C 
ATOM      3  O   GLY A   2      65.552  19.565 -13.522  0.00  0.00    -0.273 OA
ATOM      4  N   GLU A   3      64.071  21.040 -14.386  0.00  0.00    -0.297 N 
ATOM      5  H   GLU A   3      63.758  21.554 -15.234  0.00  0.00    +0.150 HD
BRANCH   2   6
ATOM      6  CA  GLY A   2      65.928  20.294 -15.766  0.00  0.00    +0.176 C 
BRANCH   6   9
ATOM      7  C   ALA A   1      66.674  22.620 -15.808  0.00  0.00    +0.238 C 
ATOM      8  O   ALA A   1      67.319  22.483 -14.774  0.00  0.00    -0.274 OA
ATOM      9  N   GLY A   2      65.989  21.622 -16.364  0.00  0.00    -0.296 N 
ATOM     10  H   GLY A   2      65.481  21.796 -17.254  0.00  0.00    +0.150 HD
BRANCH   7  11
ATOM     11  CA  ALA A   1      66.620  23.983 -16.510  0.00  0.00    +0.145 C 
ATOM     12  CB  ALA A   1      65.786  24.955 -15.692  0.00  0.00    +0.028 C 
BRANCH  11  13
ATOM     13  N   ALA A   1      66.102  23.902 -17.879  0.00  0.00    -0.238 NA
ATOM     14  H   ALA A   1      65.081  24.013 -18.041  0.00  0.00    +0.142 HD
ENDBRANCH  11  13
ENDBRANCH   7  11
ENDBRANCH   6   9
ENDBRANCH   2   6
ENDBRANCH   1   4
BRANCH   1  15
ATOM     15  C   GLU A   3      62.632  19.862 -12.730  0.00  0.00    +0.241 C 
ATOM     16  O   GLU A   3      62.598  19.532 -11.547  0.00  0.00    -0.273 OA
ATOM     17  N   ALA A   4      62.100  19.120 -13.699  0.00  0.00    -0.298 N 
ATOM     18  H   ALA A   4      62.185  19.438 -14.686  0.00  0.00    +0.150 HD
BRANCH  17  19
ATOM     19  CA  ALA A   4      61.397  17.866 -13.411  0.00  0.00    +0.137 C 
ATOM     20  CB  ALA A   4      61.054  17.138 -14.704  0.00  0.00    +0.030 C 
BRANCH  19  21
ATOM     21  C   ALA A   4      62.208  16.951 -12.488  0.00  0.00    +0.227 C 
ATOM     22  O   ALA A   4      61.666  16.376 -11.542  0.00  0.00    -0.286 OA
ENDBRANCH  19  21
ENDBRANCH  17  19
ENDBRANCH   1  15
BRANCH   1  23
ATOM     23  CB  GLU A   3      62.219  22.266 -13.264  0.00  0.00    +0.041 C 
BRANCH  23  24
ATOM     24  CG  GLU A   3      62.714  23.670 -13.601  0.00  0.00    +0.116 C 
BRANCH  24  25
ATOM     25  CD  GLU A   3      63.593  24.291 -12.527  0.00  0.00    +0.365 C 
ATOM     26  OE2 GLU A   3      63.758  23.683 -11.449  0.00  0.00    -0.246 OA
ATOM     27  OE1 GLU A   3      64.124  25.398 -12.766  0.00  0.00    -0.246 OA
ENDBRANCH  24  25
ENDBRANCH  23  24
ENDBRANCH   1  23
TORSDOF 11
REMARK  Name = ../refined-set-2016/4pg9/4pg9_pocket.pdb
REMARK  337 active torsions:
REMARK  status: ('A' for Active; 'I' for Inactive)
REMARK    1  A    between atoms: _1  and  _3
REMARK    2  A    between atoms: _3  and  _4
REMARK    3  A    between atoms: _3  and  _6
REMARK    4  A    between atoms: _6  and  _7
REMARK    5  A    between atoms: _10  and  _12
REMARK    6  A    between atoms: _12  and  _13
REMARK    7  A    between atoms: _12  and  _15
REMARK    8  A    between atoms: _15  and  _16
REMARK    9  A    between atoms: _16  and  _17
REMARK   10  A    between atoms: _17  and  _18
REMARK   11  A    between atoms: _27  and  _29
REMARK   12  A    between atoms: _29  and  _30
REMARK   13  A    between atoms: _29  and  _32
REMARK   14  A    between atoms: _32  and  _33
REMARK   15  A    between atoms: _38  and  _39
REMARK   16  A    between atoms: _41  and  _43
REMARK   17  A    between atoms: _43  and  _44
REMARK   18  A    between atoms: _43  and  _46
REMARK   19  A    between atoms: _46  and  _47
REMARK   20  A    between atoms: _53  and  _55
REMARK   21  A    between atoms: _55  and  _56
REMARK   22  A    between atoms: _55  and  _58
REMARK   23  A    between atoms: _61  and  _63
REMARK   24  A    between atoms: _63  and  _64
REMARK   25  A    between atoms: _63  and  _66
REMARK   26  A    between atoms: _66  and  _67
REMARK   27  A    between atoms: _70  and  _72
REMARK   28  A    between atoms: _72  and  _73
REMARK   29  A    between atoms: _72  and  _75
REMARK   30  A    between atoms: _75  and  _76
REMARK   31  A    between atoms: _81  and  _82
REMARK   32  A    between atoms: _84  and  _86
REMARK   33  A    between atoms: _86  and  _87
REMARK   34  A    between atoms: _86  and  _89
REMARK   35  A    between atoms: _89  and  _90
REMARK   36  A    between atoms: _90  and  _91
REMARK   37  A    between atoms: _93  and  _95
REMARK   38  A    between atoms: _95  and  _96
REMARK   39  A    between atoms: _95  and  _98
REMARK   40  A    between atoms: _98  and  _99
REMARK   41  A    between atoms: _99  and  _100
REMARK   42  A    between atoms: _103  and  _105
REMARK   43  A    between atoms: _105  and  _106
REMARK   44  A    between atoms: _105  and  _108
REMARK   45  A    between atoms: _111  and  _113
REMARK   46  A    between atoms: _113  and  _114
REMARK   47  A    between atoms: _116  and  _118
REMARK   48  A    between atoms: _118  and  _119
REMARK   49  A    between atoms: _118  and  _121
REMARK   50  A    between atoms: _124  and  _126
REMARK   51  A    between atoms: _126  and  _127
REMARK   52  A    between atoms: _126  and  _129
REMARK   53  A    between atoms: _129  and  _130
REMARK   54  A    between atoms: _136  and  _138
REMARK   55  A    between atoms: _138  and  _139
REMARK   56  A    between atoms: _138  and  _141
REMARK   57  A    between atoms: _144  and  _146
REMARK   58  A    between atoms: _146  and  _147
REMARK   59  A    between atoms: _146  and  _149
REMARK   60  A    between atoms: _149  and  _150
REMARK   61  A    between atoms: _155  and  _156
REMARK   62  A    between atoms: _158  and  _160
REMARK   63  A    between atoms: _160  and  _161
REMARK   64  A    between atoms: _160  and  _163
REMARK   65  A    between atoms: _163  and  _164
REMARK   66  A    between atoms: _164  and  _165
REMARK   67  A    between atoms: _167  and  _169
REMARK   68  A    between atoms: _169  and  _170
REMARK   69  A    between atoms: _169  and  _172
REMARK   70  A    between atoms: _172  and  _173
REMARK   71  A    between atoms: _173  and  _174
REMARK   72  A    between atoms: _177  and  _179
REMARK   73  A    between atoms: _179  and  _180
REMARK   74  A    between atoms: _179  and  _182
REMARK   75  A    between atoms: _182  and  _183
REMARK   76  A    between atoms: _183  and  _184
REMARK   77  A    between atoms: _187  and  _189
REMARK   78  A    between atoms: _189  and  _190
REMARK   79  A    between atoms: _189  and  _192
REMARK   80  A    between atoms: _192  and  _193
REMARK   81  A    between atoms: _198  and  _199
REMARK   82  A    between atoms: _201  and  _203
REMARK   83  A    between atoms: _203  and  _204
REMARK   84  A    between atoms: _203  and  _206
REMARK   85  A    between atoms: _206  and  _207
REMARK   86  A    between atoms: _207  and  _208
REMARK   87  A    between atoms: _208  and  _209
REMARK   88  A    between atoms: _218  and  _220
REMARK   89  A    between atoms: _220  and  _221
REMARK   90  A    between atoms: _220  and  _223
REMARK   91  A    between atoms: _223  and  _224
REMARK   92  A    between atoms: _224  and  _225
REMARK   93  A    between atoms: _228  and  _230
REMARK   94  A    between atoms: _230  and  _231
REMARK   95  A    between atoms: _230  and  _233
REMARK   96  A    between atoms: _233  and  _234
REMARK   97  A    between atoms: _237  and  _239
REMARK   98  A    between atoms: _239  and  _240
REMARK   99  A    between atoms: _239  and  _242
REMARK  100  A    between atoms: _242  and  _243
REMARK  101  A    between atoms: _243  and  _244
REMARK  102  A    between atoms: _249  and  _251
REMARK  103  A    between atoms: _251  and  _252
REMARK  104  A    between atoms: _251  and  _254
REMARK  105  A    between atoms: _254  and  _255
REMARK  106  A    between atoms: _255  and  _256
REMARK  107  A    between atoms: _256  and  _257
REMARK  108  A    between atoms: _257  and  _258
REMARK  109  A    between atoms: _262  and  _264
REMARK  110  A    between atoms: _264  and  _265
REMARK  111  A    between atoms: _268  and  _270
REMARK  112  A    between atoms: _270  and  _271
REMARK  113  A    between atoms: _273  and  _275
REMARK  114  A    between atoms: _275  and  _276
REMARK  115  A    between atoms: _275  and  _278
REMARK  116  A    between atoms: _278  and  _279
REMARK  117  A    between atoms: _284  and  _286
REMARK  118  A    between atoms: _286  and  _287
REMARK  119  A    between atoms: _286  and  _289
REMARK  120  A    between atoms: _289  and  _290
REMARK  121  A    between atoms: _290  and  _291
REMARK  122  A    between atoms: _294  and  _296
REMARK  123  A    between atoms: _296  and  _297
REMARK  124  A    between atoms: _296  and  _299
REMARK  125  A    between atoms: _299  and  _300
REMARK  126  A    between atoms: _300  and  _301
REMARK  127  A    between atoms: _306  and  _308
REMARK  128  A    between atoms: _308  and  _309
REMARK  129  A    between atoms: _308  and  _311
REMARK  130  A    between atoms: _311  and  _312
REMARK  131  A    between atoms: _314  and  _316
REMARK  132  A    between atoms: _316  and  _317
REMARK  133  A    between atoms: _316  and  _319
REMARK  134  A    between atoms: _319  and  _320
REMARK  135  A    between atoms: _326  and  _328
REMARK  136  A    between atoms: _328  and  _329
REMARK  137  A    between atoms: _328  and  _331
REMARK  138  A    between atoms: _334  and  _336
REMARK  139  A    between atoms: _336  and  _337
REMARK  140  A    between atoms: _336  and  _339
REMARK  141  A    between atoms: _339  and  _340
REMARK  142  A    between atoms: _343  and  _345
REMARK  143  A    between atoms: _345  and  _346
REMARK  144  A    between atoms: _345  and  _348
REMARK  145  A    between atoms: _348  and  _349
REMARK  146  A    between atoms: _352  and  _354
REMARK  147  A    between atoms: _354  and  _355
REMARK  148  A    between atoms: _354  and  _357
REMARK  149  A    between atoms: _357  and  _358
REMARK  150  A    between atoms: _361  and  _363
REMARK  151  A    between atoms: _363  and  _364
REMARK  152  A    between atoms: _363  and  _366
REMARK  153  A    between atoms: _366  and  _367
REMARK  154  A    between atoms: _370  and  _372
REMARK  155  A    between atoms: _372  and  _373
REMARK  156  A    between atoms: _372  and  _375
REMARK  157  A    between atoms: _375  and  _376
REMARK  158  A    between atoms: _381  and  _382
REMARK  159  A    between atoms: _384  and  _386
REMARK  160  A    between atoms: _386  and  _387
REMARK  161  A    between atoms: _386  and  _389
REMARK  162  A    between atoms: _389  and  _390
REMARK  163  A    between atoms: _395  and  _396
REMARK  164  A    between atoms: _398  and  _400
REMARK  165  A    between atoms: _400  and  _401
REMARK  166  A    between atoms: _400  and  _403
REMARK  167  A    between atoms: _403  and  _404
REMARK  168  A    between atoms: _407  and  _409
REMARK  169  A    between atoms: _409  and  _410
REMARK  170  A    between atoms: _409  and  _412
REMARK  171  A    between atoms: _412  and  _413
REMARK  172  A    between atoms: _416  and  _418
REMARK  173  A    between atoms: _418  and  _419
REMARK  174  A    between atoms: _418  and  _421
REMARK  175  A    between atoms: _421  and  _422
REMARK  176  A    between atoms: _422  and  _423
REMARK  177  A    between atoms: _428  and  _430
REMARK  178  A    between atoms: _430  and  _431
REMARK  179  A    between atoms: _430  and  _433
REMARK  180  A    between atoms: _436  and  _438
REMARK  181  A    between atoms: _438  and  _439
REMARK  182  A    between atoms: _438  and  _441
REMARK  183  A    between atoms: _441  and  _442
REMARK  184  A    between atoms: _445  and  _447
REMARK  185  A    between atoms: _447  and  _448
REMARK  186  A    between atoms: _447  and  _450
REMARK  187  A    between atoms: _450  and  _451
REMARK  188  A    between atoms: _453  and  _455
REMARK  189  A    between atoms: _455  and  _456
REMARK  190  A    between atoms: _458  and  _460
REMARK  191  A    between atoms: _460  and  _461
REMARK  192  A    between atoms: _460  and  _463
REMARK  193  A    between atoms: _463  and  _464
REMARK  194  A    between atoms: _464  and  _759
REMARK  195  A    between atoms: _465  and  _467
REMARK  196  A    between atoms: _467  and  _468
REMARK  197  A    between atoms: _467  and  _470
REMARK  198  A    between atoms: _470  and  _471
REMARK  199  A    between atoms: _476  and  _477
REMARK  200  A    between atoms: _479  and  _481
REMARK  201  A    between atoms: _481  and  _482
REMARK  202  A    between atoms: _481  and  _484
REMARK  203  A    between atoms: _484  and  _485
REMARK  204  A    between atoms: _485  and  _486
REMARK  205  A    between atoms: _491  and  _493
REMARK  206  A    between atoms: _493  and  _494
REMARK  207  A    between atoms: _493  and  _496
REMARK  208  A    between atoms: _496  and  _497
REMARK  209  A    between atoms: _497  and  _498
REMARK  210  A    between atoms: _503  and  _505
REMARK  211  A    between atoms: _505  and  _506
REMARK  212  A    between atoms: _505  and  _508
REMARK  213  A    between atoms: _508  and  _509
REMARK  214  A    between atoms: _514  and  _515
REMARK  215  A    between atoms: _517  and  _519
REMARK  216  A    between atoms: _519  and  _520
REMARK  217  A    between atoms: _523  and  _525
REMARK  218  A    between atoms: _525  and  _526
REMARK  219  A    between atoms: _525  and  _528
REMARK  220  A    between atoms: _528  and  _529
REMARK  221  A    between atoms: _534  and  _535
REMARK  222  A    between atoms: _537  and  _539
REMARK  223  A    between atoms: _539  and  _540
REMARK  224  A    between atoms: _539  and  _542
REMARK  225  A    between atoms: _542  and  _543
REMARK  226  A    between atoms: _548  and  _549
REMARK  227  A    between atoms: _551  and  _553
REMARK  228  A    between atoms: _553  and  _554
REMARK  229  A    between atoms: _553  and  _556
REMARK  230  A    between atoms: _556  and  _557
REMARK  231  A    between atoms: _560  and  _562
REMARK  232  A    between atoms: _562  and  _563
REMARK  233  A    between atoms: _562  and  _565
REMARK  234  A    between atoms: _565  and  _566
REMARK  235  A    between atoms: _576  and  _578
REMARK  236  A    between atoms: _578  and  _579
REMARK  237  A    between atoms: _582  and  _584
REMARK  238  A    between atoms: _584  and  _585
REMARK  239  A    between atoms: _588  and  _590
REMARK  240  A    between atoms: _590  and  _591
REMARK  241  A    between atoms: _590  and  _593
REMARK  242  A    between atoms: _593  and  _594
REMARK  243  A    between atoms: _597  and  _599
REMARK  244  A    between atoms: _599  and  _600
REMARK  245  A    between atoms: _599  and  _602
REMARK  246  A    between atoms: _602  and  _603
REMARK  247  A    between atoms: _606  and  _608
REMARK  248  A    between atoms: _608  and  _609
REMARK  249  A    between atoms: _608  and  _611
REMARK  250  A    between atoms: _611  and  _612
REMARK  251  A    between atoms: _615  and  _617
REMARK  252  A    between atoms: _617  and  _618
REMARK  253  A    between atoms: _617  and  _620
REMARK  254  A    between atoms: _620  and  _621
REMARK  255  A    between atoms: _621  and  _622
REMARK  256  A    between atoms: _622  and  _623
REMARK  257  A    between atoms: _623  and  _624
REMARK  258  A    between atoms: _628  and  _630
REMARK  259  A    between atoms: _630  and  _631
REMARK  260  A    between atoms: _630  and  _633
REMARK  261  A    between atoms: _633  and  _634
REMARK  262  A    between atoms: _639  and  _641
REMARK  263  A    between atoms: _641  and  _642
REMARK  264  A    between atoms: _641  and  _644
REMARK  265  A    between atoms: _644  and  _645
REMARK  266  A    between atoms: _645  and  _646
REMARK  267  A    between atoms: _646  and  _647
REMARK  268  A    between atoms: _647  and  _648
REMARK  269  A    between atoms: _652  and  _654
REMARK  270  A    between atoms: _654  and  _655
REMARK  271  A    between atoms: _654  and  _657
REMARK  272  A    between atoms: _657  and  _658
REMARK  273  A    between atoms: _668  and  _670
REMARK  274  A    between atoms: _670  and  _671
REMARK  275  A    between atoms: _674  and  _676
REMARK  276  A    between atoms: _676  and  _677
REMARK  277  A    between atoms: _679  and  _681
REMARK  278  A    between atoms: _681  and  _682
REMARK  279  A    between atoms: _681  and  _684
REMARK  280  A    between atoms: _684  and  _685
REMARK  281  A    between atoms: _685  and  _686
REMARK  282  A    between atoms: _689  and  _691
REMARK  283  A    between atoms: _691  and  _692
REMARK  284  A    between atoms: _695  and  _697
REMARK  285  A    between atoms: _697  and  _698
REMARK  286  A    between atoms: _697  and  _700
REMARK  287  A    between atoms: _700  and  _701
REMARK  288  A    between atoms: _701  and  _702
REMARK  289  A    between atoms: _702  and  _703
REMARK  290  A    between atoms: _712  and  _714
REMARK  291  A    between atoms: _714  and  _715
REMARK  292  A    between atoms: _714  and  _717
REMARK  293  A    between atoms: _717  and  _718
REMARK  294  A    between atoms: _721  and  _723
REMARK  295  A    between atoms: _723  and  _724
REMARK  296  A    between atoms: _723  and  _726
REMARK  297  A    between atoms: _726  and  _727
REMARK  298  A    between atoms: _732  and  _733
REMARK  299  A    between atoms: _735  and  _737
REMARK  300  A    between atoms: _737  and  _738
REMARK  301  A    between atoms: _737  and  _740
REMARK  302  A    between atoms: _740  and  _741
REMARK  303  A    between atoms: _744  and  _746
REMARK  304  A    between atoms: _746  and  _747
REMARK  305  A    between atoms: _746  and  _749
REMARK  306  A    between atoms: _749  and  _750
REMARK  307  A    between atoms: _753  and  _755
REMARK  308  A    between atoms: _755  and  _756
REMARK  309  A    between atoms: _755  and  _758
REMARK  310  A    between atoms: _758  and  _759
REMARK  311  A    between atoms: _760  and  _762
REMARK  312  A    between atoms: _762  and  _763
REMARK  313  A    between atoms: _762  and  _765
REMARK  314  A    between atoms: _768  and  _770
REMARK  315  A    between atoms: _770  and  _771
REMARK  316  A    between atoms: _770  and  _773
REMARK  317  A    between atoms: _773  and  _774
REMARK  318  A    between atoms: _774  and  _775
REMARK  319  A    between atoms: _778  and  _780
REMARK  320  A    between atoms: _780  and  _781
REMARK  321  A    between atoms: _780  and  _783
REMARK  322  A    between atoms: _783  and  _784
REMARK  323  A    between atoms: _794  and  _796
REMARK  324  A    between atoms: _796  and  _797
REMARK  325  A    between atoms: _796  and  _799
REMARK  326  A    between atoms: _799  and  _800
REMARK  327  A    between atoms: _803  and  _805
REMARK  328  A    between atoms: _805  and  _806
REMARK  329  A    between atoms: _805  and  _808
REMARK  330  A    between atoms: _808  and  _809
REMARK  331  A    between atoms: _809  and  _810
REMARK  332  A    between atoms: _810  and  _811
REMARK  333  A    between atoms: _820  and  _822
REMARK  334  A    between atoms: _822  and  _823
REMARK  335  A    between atoms: _822  and  _825
REMARK  336  A    between atoms: _825  and  _826
REMARK  337  A    between atoms: _831  and  _832
REMARK                            x       y       z     vdW  Elec       q    Type
REMARK                         _______ _______ _______ _____ _____    ______ ____
ROOT
ATOM      1  CA  ARG A   1      64.612  18.142  -8.843  0.00  0.00    +0.145 C 
ENDROOT
BRANCH   1   2
ATOM      2  C   ARG A   1      63.290  17.843  -8.132  0.00  0.00    +0.238 C 
ATOM      3  O   ARG A   1      63.277  17.385  -6.987  0.00  0.00    -0.274 OA
ATOM      4  N   LEU A   2      62.184  18.087  -8.824  0.00  0.00    -0.298 N 
ATOM      5  H   LEU A   2      62.261  18.462  -9.791  0.00  0.00    +0.150 HD
BRANCH   4   6
ATOM      6  CA  LEU A   2      60.868  17.842  -8.259  0.00  0.00    +0.137 C 
BRANCH   6   7
ATOM      7  C   LEU A   2      60.668  16.356  -8.008  0.00  0.00    +0.227 C 
ATOM      8  O   LEU A   2      60.209  15.956  -6.939  0.00  0.00    -0.286 OA
ENDBRANCH   6   7
BRANCH   6   9
ATOM      9  CB  LEU A   2      59.778  18.382  -9.186  0.00  0.00    +0.028 C 
BRANCH   9  10
ATOM     10  CG  LEU A   2      58.327  18.246  -8.713  0.00  0.00    +0.002 C 
ATOM     11  CD2 LEU A   2      58.116  18.806  -7.315  0.00  0.00    +0.000 C 
ATOM     12  CD1 LEU A   2      57.416  18.936  -9.708  0.00  0.00    +0.000 C 
ENDBRANCH   9  10
ENDBRANCH   6   9
ENDBRANCH   4   6
ENDBRANCH   1   2
BRANCH   1  13
ATOM     13  N   ARG A   1      64.569  17.683 -10.232  0.00  0.00    -0.238 NA
ATOM     14  H   ARG A   1      64.568  18.379 -11.004  0.00  0.00    +0.142 HD
ENDBRANCH   1  13
BRANCH   1  15
ATOM     15  CB  ARG A   1      64.947  19.634  -8.761  0.00  0.00    +0.030 C 
BRANCH  15  16
ATOM     16  CG  ARG A   1      66.437  19.918  -8.854  0.00  0.00    +0.045 C 
BRANCH  16  17
ATOM     17  CD  ARG A   1      66.751  21.399  -8.711  0.00  0.00    +0.174 C 
BRANCH  17  18
ATOM     18  NE  ARG A   1      66.513  22.129  -9.956  0.00  0.00    -0.265 N 
ATOM     19  HE  ARG A   1      65.636  22.683 -10.028  0.00  0.00    +0.259 HD
ATOM     20  CZ  ARG A   1      67.337  22.138 -11.007  0.00  0.00    +0.342 C 
ATOM     21  NH2 ARG A   1      68.477  21.449 -10.995  0.00  0.00    -0.292 N 
ATOM     22 HH21 ARG A   1      68.739  20.891 -10.157  0.00  0.00    +0.255 HD
ATOM     23 HH22 ARG A   1      69.105  21.469 -11.824  0.00  0.00    +0.255 HD
ATOM     24  NH1 ARG A   1      67.013  22.837 -12.090  0.00  0.00    -0.292 N 
ATOM     25 HH11 ARG A   1      66.122  23.373 -12.116  0.00  0.00    +0.255 HD
ATOM     26 HH12 ARG A   1      67.650  22.848 -12.912  0.00  0.00    +0.255 HD
ENDBRANCH  17  18
ENDBRANCH  16  17
ENDBRANCH  15  16
ENDBRANCH   1  15
TORSDOF 10
REMARK  Name = ../refined-set-2016/4pg9/4pg9_pocket.pdb
REMARK  337 active torsions:
REMARK  status: ('A' for Active; 'I' for Inactive)
REMARK    1  A    between atoms: _1  and  _3
REMARK    2  A    between atoms: _3  and  _4
REMARK    3  A    between atoms: _3  and  _6
REMARK    4  A    between atoms: _6  and  _7
REMARK    5  A    between atoms: _10  and  _12
REMARK    6  A    between atoms: _12  and  _13
REMARK    7  A    between atoms: _12  and  _15
REMARK    8  A    between atoms: _15  and  _16
REMARK    9  A    between atoms: _16  and  _17
REMARK   10  A    between atoms: _17  and  _18
REMARK   11  A    between atoms: _27  and  _29
REMARK   12  A    between atoms: _29  and  _30
REMARK   13  A    between atoms: _29  and  _32
REMARK   14  A    between atoms: _32  and  _33
REMARK   15  A    between atoms: _38  and  _39
REMARK   16  A    between atoms: _41  and  _43
REMARK   17  A    between atoms: _43  and  _44
REMARK   18  A    between atoms: _43  and  _46
REMARK   19  A    between atoms: _46  and  _47
REMARK   20  A    between atoms: _53  and  _55
REMARK   21  A    between atoms: _55  and  _56
REMARK   22  A    between atoms: _55  and  _58
REMARK   23  A    between atoms: _61  and  _63
REMARK   24  A    between atoms: _63  and  _64
REMARK   25  A    between atoms: _63  and  _66
REMARK   26  A    between atoms: _66  and  _67
REMARK   27  A    between atoms: _70  and  _72
REMARK   28  A    between atoms: _72  and  _73
REMARK   29  A    between atoms: _72  and  _75
REMARK   30  A    between atoms: _75  and  _76
REMARK   31  A    between atoms: _81  and  _82
REMARK   32  A    between atoms: _84  and  _86
REMARK   33  A    between atoms: _86  and  _87
REMARK   34  A    between atoms: _86  and  _89
REMARK   35  A    between atoms: _89  and  _90
REMARK   36  A    between atoms: _90  and  _91
REMARK   37  A    between atoms: _93  and  _95
REMARK   38  A    between atoms: _95  and  _96
REMARK   39  A    between atoms: _95  and  _98
REMARK   40  A    between atoms: _98  and  _99
REMARK   41  A    between atoms: _99  and  _100
REMARK   42  A    between atoms: _103  and  _105
REMARK   43  A    between atoms: _105  and  _106
REMARK   44  A    between atoms: _105  and  _108
REMARK   45  A    between atoms: _111  and  _113
REMARK   46  A    between atoms: _113  and  _114
REMARK   47  A    between atoms: _116  and  _118
REMARK   48  A    between atoms: _118  and  _119
REMARK   49  A    between atoms: _118  and  _121
REMARK   50  A    between atoms: _124  and  _126
REMARK   51  A    between atoms: _126  and  _127
REMARK   52  A    between atoms: _126  and  _129
REMARK   53  A    between atoms: _129  and  _130
REMARK   54  A    between atoms: _136  and  _138
REMARK   55  A    between atoms: _138  and  _139
REMARK   56  A    between atoms: _138  and  _141
REMARK   57  A    between atoms: _144  and  _146
REMARK   58  A    between atoms: _146  and  _147
REMARK   59  A    between atoms: _146  and  _149
REMARK   60  A    between atoms: _149  and  _150
REMARK   61  A    between atoms: _155  and  _156
REMARK   62  A    between atoms: _158  and  _160
REMARK   63  A    between atoms: _160  and  _161
REMARK   64  A    between atoms: _160  and  _163
REMARK   65  A    between atoms: _163  and  _164
REMARK   66  A    between atoms: _164  and  _165
REMARK   67  A    between atoms: _167  and  _169
REMARK   68  A    between atoms: _169  and  _170
REMARK   69  A    between atoms: _169  and  _172
REMARK   70  A    between atoms: _172  and  _173
REMARK   71  A    between atoms: _173  and  _174
REMARK   72  A    between atoms: _177  and  _179
REMARK   73  A    between atoms: _179  and  _180
REMARK   74  A    between atoms: _179  and  _182
REMARK   75  A    between atoms: _182  and  _183
REMARK   76  A    between atoms: _183  and  _184
REMARK   77  A    between atoms: _187  and  _189
REMARK   78  A    between atoms: _189  and  _190
REMARK   79  A    between atoms: _189  and  _192
REMARK   80  A    between atoms: _192  and  _193
REMARK   81  A    between atoms: _198  and  _199
REMARK   82  A    between atoms: _201  and  _203
REMARK   83  A    between atoms: _203  and  _204
REMARK   84  A    between atoms: _203  and  _206
REMARK   85  A    between atoms: _206  and  _207
REMARK   86  A    between atoms: _207  and  _208
REMARK   87  A    between atoms: _208  and  _209
REMARK   88  A    between atoms: _218  and  _220
REMARK   89  A    between atoms: _220  and  _221
REMARK   90  A    between atoms: _220  and  _223
REMARK   91  A    between atoms: _223  and  _224
REMARK   92  A    between atoms: _224  and  _225
REMARK   93  A    between atoms: _228  and  _230
REMARK   94  A    between atoms: _230  and  _231
REMARK   95  A    between atoms: _230  and  _233
REMARK   96  A    between atoms: _233  and  _234
REMARK   97  A    between atoms: _237  and  _239
REMARK   98  A    between atoms: _239  and  _240
REMARK   99  A    between atoms: _239  and  _242
REMARK  100  A    between atoms: _242  and  _243
REMARK  101  A    between atoms: _243  and  _244
REMARK  102  A    between atoms: _249  and  _251
REMARK  103  A    between atoms: _251  and  _252
REMARK  104  A    between atoms: _251  and  _254
REMARK  105  A    between atoms: _254  and  _255
REMARK  106  A    between atoms: _255  and  _256
REMARK  107  A    between atoms: _256  and  _257
REMARK  108  A    between atoms: _257  and  _258
REMARK  109  A    between atoms: _262  and  _264
REMARK  110  A    between atoms: _264  and  _265
REMARK  111  A    between atoms: _268  and  _270
REMARK  112  A    between atoms: _270  and  _271
REMARK  113  A    between atoms: _273  and  _275
REMARK  114  A    between atoms: _275  and  _276
REMARK  115  A    between atoms: _275  and  _278
REMARK  116  A    between atoms: _278  and  _279
REMARK  117  A    between atoms: _284  and  _286
REMARK  118  A    between atoms: _286  and  _287
REMARK  119  A    between atoms: _286  and  _289
REMARK  120  A    between atoms: _289  and  _290
REMARK  121  A    between atoms: _290  and  _291
REMARK  122  A    between atoms: _294  and  _296
REMARK  123  A    between atoms: _296  and  _297
REMARK  124  A    between atoms: _296  and  _299
REMARK  125  A    between atoms: _299  and  _300
REMARK  126  A    between atoms: _300  and  _301
REMARK  127  A    between atoms: _306  and  _308
REMARK  128  A    between atoms: _308  and  _309
REMARK  129  A    between atoms: _308  and  _311
REMARK  130  A    between atoms: _311  and  _312
REMARK  131  A    between atoms: _314  and  _316
REMARK  132  A    between atoms: _316  and  _317
REMARK  133  A    between atoms: _316  and  _319
REMARK  134  A    between atoms: _319  and  _320
REMARK  135  A    between atoms: _326  and  _328
REMARK  136  A    between atoms: _328  and  _329
REMARK  137  A    between atoms: _328  and  _331
REMARK  138  A    between atoms: _334  and  _336
REMARK  139  A    between atoms: _336  and  _337
REMARK  140  A    between atoms: _336  and  _339
REMARK  141  A    between atoms: _339  and  _340
REMARK  142  A    between atoms: _343  and  _345
REMARK  143  A    between atoms: _345  and  _346
REMARK  144  A    between atoms: _345  and  _348
REMARK  145  A    between atoms: _348  and  _349
REMARK  146  A    between atoms: _352  and  _354
REMARK  147  A    between atoms: _354  and  _355
REMARK  148  A    between atoms: _354  and  _357
REMARK  149  A    between atoms: _357  and  _358
REMARK  150  A    between atoms: _361  and  _363
REMARK  151  A    between atoms: _363  and  _364
REMARK  152  A    between atoms: _363  and  _366
REMARK  153  A    between atoms: _366  and  _367
REMARK  154  A    between atoms: _370  and  _372
REMARK  155  A    between atoms: _372  and  _373
REMARK  156  A    between atoms: _372  and  _375
REMARK  157  A    between atoms: _375  and  _376
REMARK  158  A    between atoms: _381  and  _382
REMARK  159  A    between atoms: _384  and  _386
REMARK  160  A    between atoms: _386  and  _387
REMARK  161  A    between atoms: _386  and  _389
REMARK  162  A    between atoms: _389  and  _390
REMARK  163  A    between atoms: _395  and  _396
REMARK  164  A    between atoms: _398  and  _400
REMARK  165  A    between atoms: _400  and  _401
REMARK  166  A    between atoms: _400  and  _403
REMARK  167  A    between atoms: _403  and  _404
REMARK  168  A    between atoms: _407  and  _409
REMARK  169  A    between atoms: _409  and  _410
REMARK  170  A    between atoms: _409  and  _412
REMARK  171  A    between atoms: _412  and  _413
REMARK  172  A    between atoms: _416  and  _418
REMARK  173  A    between atoms: _418  and  _419
REMARK  174  A    between atoms: _418  and  _421
REMARK  175  A    between atoms: _421  and  _422
REMARK  176  A    between atoms: _422  and  _423
REMARK  177  A    between atoms: _428  and  _430
REMARK  178  A    between atoms: _430  and  _431
REMARK  179  A    between atoms: _430  and  _433
REMARK  180  A    between atoms: _436  and  _438
REMARK  181  A    between atoms: _438  and  _439
REMARK  182  A    between atoms: _438  and  _441
REMARK  183  A    between atoms: _441  and  _442
REMARK  184  A    between atoms: _445  and  _447
REMARK  185  A    between atoms: _447  and  _448
REMARK  186  A    between atoms: _447  and  _450
REMARK  187  A    between atoms: _450  and  _451
REMARK  188  A    between atoms: _453  and  _455
REMARK  189  A    between atoms: _455  and  _456
REMARK  190  A    between atoms: _458  and  _460
REMARK  191  A    between atoms: _460  and  _461
REMARK  192  A    between atoms: _460  and  _463
REMARK  193  A    between atoms: _463  and  _464
REMARK  194  A    between atoms: _464  and  _759
REMARK  195  A    between atoms: _465  and  _467
REMARK  196  A    between atoms: _467  and  _468
REMARK  197  A    between atoms: _467  and  _470
REMARK  198  A    between atoms: _470  and  _471
REMARK  199  A    between atoms: _476  and  _477
REMARK  200  A    between atoms: _479  and  _481
REMARK  201  A    between atoms: _481  and  _482
REMARK  202  A    between atoms: _481  and  _484
REMARK  203  A    between atoms: _484  and  _485
REMARK  204  A    between atoms: _485  and  _486
REMARK  205  A    between atoms: _491  and  _493
REMARK  206  A    between atoms: _493  and  _494
REMARK  207  A    between atoms: _493  and  _496
REMARK  208  A    between atoms: _496  and  _497
REMARK  209  A    between atoms: _497  and  _498
REMARK  210  A    between atoms: _503  and  _505
REMARK  211  A    between atoms: _505  and  _506
REMARK  212  A    between atoms: _505  and  _508
REMARK  213  A    between atoms: _508  and  _509
REMARK  214  A    between atoms: _514  and  _515
REMARK  215  A    between atoms: _517  and  _519
REMARK  216  A    between atoms: _519  and  _520
REMARK  217  A    between atoms: _523  and  _525
REMARK  218  A    between atoms: _525  and  _526
REMARK  219  A    between atoms: _525  and  _528
REMARK  220  A    between atoms: _528  and  _529
REMARK  221  A    between atoms: _534  and  _535
REMARK  222  A    between atoms: _537  and  _539
REMARK  223  A    between atoms: _539  and  _540
REMARK  224  A    between atoms: _539  and  _542
REMARK  225  A    between atoms: _542  and  _543
REMARK  226  A    between atoms: _548  and  _549
REMARK  227  A    between atoms: _551  and  _553
REMARK  228  A    between atoms: _553  and  _554
REMARK  229  A    between atoms: _553  and  _556
REMARK  230  A    between atoms: _556  and  _557
REMARK  231  A    between atoms: _560  and  _562
REMARK  232  A    between atoms: _562  and  _563
REMARK  233  A    between atoms: _562  and  _565
REMARK  234  A    between atoms: _565  and  _566
REMARK  235  A    between atoms: _576  and  _578
REMARK  236  A    between atoms: _578  and  _579
REMARK  237  A    between atoms: _582  and  _584
REMARK  238  A    between atoms: _584  and  _585
REMARK  239  A    between atoms: _588  and  _590
REMARK  240  A    between atoms: _590  and  _591
REMARK  241  A    between atoms: _590  and  _593
REMARK  242  A    between atoms: _593  and  _594
REMARK  243  A    between atoms: _597  and  _599
REMARK  244  A    between atoms: _599  and  _600
REMARK  245  A    between atoms: _599  and  _602
REMARK  246  A    between atoms: _602  and  _603
REMARK  247  A    between atoms: _606  and  _608
REMARK  248  A    between atoms: _608  and  _609
REMARK  249  A    between atoms: _608  and  _611
REMARK  250  A    between atoms: _611  and  _612
REMARK  251  A    between atoms: _615  and  _617
REMARK  252  A    between atoms: _617  and  _618
REMARK  253  A    between atoms: _617  and  _620
REMARK  254  A    between atoms: _620  and  _621
REMARK  255  A    between atoms: _621  and  _622
REMARK  256  A    between atoms: _622  and  _623
REMARK  257  A    between atoms: _623  and  _624
REMARK  258  A    between atoms: _628  and  _630
REMARK  259  A    between atoms: _630  and  _631
REMARK  260  A    between atoms: _630  and  _633
REMARK  261  A    between atoms: _633  and  _634
REMARK  262  A    between atoms: _639  and  _641
REMARK  263  A    between atoms: _641  and  _642
REMARK  264  A    between atoms: _641  and  _644
REMARK  265  A    between atoms: _644  and  _645
REMARK  266  A    between atoms: _645  and  _646
REMARK  267  A    between atoms: _646  and  _647
REMARK  268  A    between atoms: _647  and  _648
REMARK  269  A    between atoms: _652  and  _654
REMARK  270  A    between atoms: _654  and  _655
REMARK  271  A    between atoms: _654  and  _657
REMARK  272  A    between atoms: _657  and  _658
REMARK  273  A    between atoms: _668  and  _670
REMARK  274  A    between atoms: _670  and  _671
REMARK  275  A    between atoms: _674  and  _676
REMARK  276  A    between atoms: _676  and  _677
REMARK  277  A    between atoms: _679  and  _681
REMARK  278  A    between atoms: _681  and  _682
REMARK  279  A    between atoms: _681  and  _684
REMARK  280  A    between atoms: _684  and  _685
REMARK  281  A    between atoms: _685  and  _686
REMARK  282  A    between atoms: _689  and  _691
REMARK  283  A    between atoms: _691  and  _692
REMARK  284  A    between atoms: _695  and  _697
REMARK  285  A    between atoms: _697  and  _698
REMARK  286  A    between atoms: _697  and  _700
REMARK  287  A    between atoms: _700  and  _701
REMARK  288  A    between atoms: _701  and  _702
REMARK  289  A    between atoms: _702  and  _703
REMARK  290  A    between atoms: _712  and  _714
REMARK  291  A    between atoms: _714  and  _715
REMARK  292  A    between atoms: _714  and  _717
REMARK  293  A    between atoms: _717  and  _718
REMARK  294  A    between atoms: _721  and  _723
REMARK  295  A    between atoms: _723  and  _724
REMARK  296  A    between atoms: _723  and  _726
REMARK  297  A    between atoms: _726  and  _727
REMARK  298  A    between atoms: _732  and  _733
REMARK  299  A    between atoms: _735  and  _737
REMARK  300  A    between atoms: _737  and  _738
REMARK  301  A    between atoms: _737  and  _740
REMARK  302  A    between atoms: _740  and  _741
REMARK  303  A    between atoms: _744  and  _746
REMARK  304  A    between atoms: _746  and  _747
REMARK  305  A    between atoms: _746  and  _749
REMARK  306  A    between atoms: _749  and  _750
REMARK  307  A    between atoms: _753  and  _755
REMARK  308  A    between atoms: _755  and  _756
REMARK  309  A    between atoms: _755  and  _758
REMARK  310  A    between atoms: _758  and  _759
REMARK  311  A    between atoms: _760  and  _762
REMARK  312  A    between atoms: _762  and  _763
REMARK  313  A    between atoms: _762  and  _765
REMARK  314  A    between atoms: _768  and  _770
REMARK  315  A    between atoms: _770  and  _771
REMARK  316  A    between atoms: _770  and  _773
REMARK  317  A    between atoms: _773  and  _774
REMARK  318  A    between atoms: _774  and  _775
REMARK  319  A    between atoms: _778  and  _780
REMARK  320  A    between atoms: _780  and  _781
REMARK  321  A    between atoms: _780  and  _783
REMARK  322  A    between atoms: _783  and  _784
REMARK  323  A    between atoms: _794  and  _796
REMARK  324  A    between atoms: _796  and  _797
REMARK  325  A    between atoms: _796  and  _799
REMARK  326  A    between atoms: _799  and  _800
REMARK  327  A    between atoms: _803  and  _805
REMARK  328  A    between atoms: _805  and  _806
REMARK  329  A    between atoms: _805  and  _808
REMARK  330  A    between atoms: _808  and  _809
REMARK  331  A    between atoms: _809  and  _810
REMARK  332  A    between atoms: _810  and  _811
REMARK  333  A    between atoms: _820  and  _822
REMARK  334  A    between atoms: _822  and  _823
REMARK  335  A    between atoms: _822  and  _825
REMARK  336  A    between atoms: _825  and  _826
REMARK  337  A    between atoms: _831  and  _832
REMARK                            x       y       z     vdW  Elec       q    Type
REMARK                         _______ _______ _______ _____ _____    ______ ____
ROOT
ATOM      1  CA  TYR A   1      61.386  15.722  -3.714  0.00  0.00    +0.149 C 
ENDROOT
BRANCH   1   2
ATOM      2  C   TYR A   1      60.183  14.784  -3.486  0.00  0.00    +0.239 C 
ATOM      3  O   TYR A   1      59.907  14.388  -2.353  0.00  0.00    -0.274 OA
ATOM      4  N   LEU A   2      59.462  14.453  -4.552  0.00  0.00    -0.298 N 
ATOM      5  H   LEU A   2      59.774  14.767  -5.493  0.00  0.00    +0.150 HD
BRANCH   4   6
ATOM      6  CA  LEU A   2      58.235  13.654  -4.432  0.00  0.00    +0.137 C 
BRANCH   6   7
ATOM      7  C   LEU A   2      58.504  12.207  -4.022  0.00  0.00    +0.227 C 
ATOM      8  O   LEU A   2      57.742  11.636  -3.252  0.00  0.00    -0.286 OA
ENDBRANCH   6   7
BRANCH   6   9
ATOM      9  CB  LEU A   2      57.451  13.654  -5.745  0.00  0.00    +0.028 C 
BRANCH   9  10
ATOM     10  CG  LEU A   2      56.834  14.976  -6.187  0.00  0.00    +0.002 C 
ATOM     11  CD2 LEU A   2      55.722  15.402  -5.238  0.00  0.00    +0.000 C 
ATOM     12  CD1 LEU A   2      56.313  14.851  -7.609  0.00  0.00    +0.000 C 
ENDBRANCH   9  10
ENDBRANCH   6   9
ENDBRANCH   4   6
ENDBRANCH   1   2
BRANCH   1  13
ATOM     13  N   TYR A   1      62.205  15.306  -4.846  0.00  0.00    -0.238 NA
ATOM     14  H   TYR A   1      62.253  15.911  -5.690  0.00  0.00    +0.142 HD
ENDBRANCH   1  13
BRANCH   1  15
ATOM     15  CB  TYR A   1      60.904  17.162  -3.895  0.00  0.00    +0.053 C 
BRANCH  15  16
ATOM     16  CG  TYR A   1      59.785  17.527  -2.949  0.00  0.00    -0.020 A 
ATOM     17  CD2 TYR A   1      60.055  17.908  -1.643  0.00  0.00    -0.001 A 
ATOM     18  CE2 TYR A   1      59.034  18.224  -0.764  0.00  0.00    +0.036 A 
ATOM     19  CZ  TYR A   1      57.725  18.157  -1.186  0.00  0.00    +0.134 A 
ATOM     20  CE1 TYR A   1      57.426  17.777  -2.481  0.00  0.00    +0.036 A 
ATOM     21  CD1 TYR A   1      58.452  17.462  -3.354  0.00  0.00    -0.001 A 
BRANCH  19  22
ATOM     22  OH  TYR A   1      56.716  18.472  -0.309  0.00  0.00    -0.506 OA
ATOM     23  HH  TYR A   1      57.107  18.720   0.566  0.00  0.00    +0.292 HD
ENDBRANCH  19  22
ENDBRANCH  15  16
ENDBRANCH   1  15
TORSDOF 9
REMARK  Name = ../refined-set-2016/4pg9/4pg9_pocket.pdb
REMARK  337 active torsions:
REMARK  status: ('A' for Active; 'I' for Inactive)
REMARK    1  A    between atoms: _1  and  _3
REMARK    2  A    between atoms: _3  and  _4
REMARK    3  A    between atoms: _3  and  _6
REMARK    4  A    between atoms: _6  and  _7
REMARK    5  A    between atoms: _10  and  _12
REMARK    6  A    between atoms: _12  and  _13
REMARK    7  A    between atoms: _12  and  _15
REMARK    8  A    between atoms: _15  and  _16
REMARK    9  A    between atoms: _16  and  _17
REMARK   10  A    between atoms: _17  and  _18
REMARK   11  A    between atoms: _27  and  _29
REMARK   12  A    between atoms: _29  and  _30
REMARK   13  A    between atoms: _29  and  _32
REMARK   14  A    between atoms: _32  and  _33
REMARK   15  A    between atoms: _38  and  _39
REMARK   16  A    between atoms: _41  and  _43
REMARK   17  A    between atoms: _43  and  _44
REMARK   18  A    between atoms: _43  and  _46
REMARK   19  A    between atoms: _46  and  _47
REMARK   20  A    between atoms: _53  and  _55
REMARK   21  A    between atoms: _55  and  _56
REMARK   22  A    between atoms: _55  and  _58
REMARK   23  A    between atoms: _61  and  _63
REMARK   24  A    between atoms: _63  and  _64
REMARK   25  A    between atoms: _63  and  _66
REMARK   26  A    between atoms: _66  and  _67
REMARK   27  A    between atoms: _70  and  _72
REMARK   28  A    between atoms: _72  and  _73
REMARK   29  A    between atoms: _72  and  _75
REMARK   30  A    between atoms: _75  and  _76
REMARK   31  A    between atoms: _81  and  _82
REMARK   32  A    between atoms: _84  and  _86
REMARK   33  A    between atoms: _86  and  _87
REMARK   34  A    between atoms: _86  and  _89
REMARK   35  A    between atoms: _89  and  _90
REMARK   36  A    between atoms: _90  and  _91
REMARK   37  A    between atoms: _93  and  _95
REMARK   38  A    between atoms: _95  and  _96
REMARK   39  A    between atoms: _95  and  _98
REMARK   40  A    between atoms: _98  and  _99
REMARK   41  A    between atoms: _99  and  _100
REMARK   42  A    between atoms: _103  and  _105
REMARK   43  A    between atoms: _105  and  _106
REMARK   44  A    between atoms: _105  and  _108
REMARK   45  A    between atoms: _111  and  _113
REMARK   46  A    between atoms: _113  and  _114
REMARK   47  A    between atoms: _116  and  _118
REMARK   48  A    between atoms: _118  and  _119
REMARK   49  A    between atoms: _118  and  _121
REMARK   50  A    between atoms: _124  and  _126
REMARK   51  A    between atoms: _126  and  _127
REMARK   52  A    between atoms: _126  and  _129
REMARK   53  A    between atoms: _129  and  _130
REMARK   54  A    between atoms: _136  and  _138
REMARK   55  A    between atoms: _138  and  _139
REMARK   56  A    between atoms: _138  and  _141
REMARK   57  A    between atoms: _144  and  _146
REMARK   58  A    between atoms: _146  and  _147
REMARK   59  A    between atoms: _146  and  _149
REMARK   60  A    between atoms: _149  and  _150
REMARK   61  A    between atoms: _155  and  _156
REMARK   62  A    between atoms: _158  and  _160
REMARK   63  A    between atoms: _160  and  _161
REMARK   64  A    between atoms: _160  and  _163
REMARK   65  A    between atoms: _163  and  _164
REMARK   66  A    between atoms: _164  and  _165
REMARK   67  A    between atoms: _167  and  _169
REMARK   68  A    between atoms: _169  and  _170
REMARK   69  A    between atoms: _169  and  _172
REMARK   70  A    between atoms: _172  and  _173
REMARK   71  A    between atoms: _173  and  _174
REMARK   72  A    between atoms: _177  and  _179
REMARK   73  A    between atoms: _179  and  _180
REMARK   74  A    between atoms: _179  and  _182
REMARK   75  A    between atoms: _182  and  _183
REMARK   76  A    between atoms: _183  and  _184
REMARK   77  A    between atoms: _187  and  _189
REMARK   78  A    between atoms: _189  and  _190
REMARK   79  A    between atoms: _189  and  _192
REMARK   80  A    between atoms: _192  and  _193
REMARK   81  A    between atoms: _198  and  _199
REMARK   82  A    between atoms: _201  and  _203
REMARK   83  A    between atoms: _203  and  _204
REMARK   84  A    between atoms: _203  and  _206
REMARK   85  A    between atoms: _206  and  _207
REMARK   86  A    between atoms: _207  and  _208
REMARK   87  A    between atoms: _208  and  _209
REMARK   88  A    between atoms: _218  and  _220
REMARK   89  A    between atoms: _220  and  _221
REMARK   90  A    between atoms: _220  and  _223
REMARK   91  A    between atoms: _223  and  _224
REMARK   92  A    between atoms: _224  and  _225
REMARK   93  A    between atoms: _228  and  _230
REMARK   94  A    between atoms: _230  and  _231
REMARK   95  A    between atoms: _230  and  _233
REMARK   96  A    between atoms: _233  and  _234
REMARK   97  A    between atoms: _237  and  _239
REMARK   98  A    between atoms: _239  and  _240
REMARK   99  A    between atoms: _239  and  _242
REMARK  100  A    between atoms: _242  and  _243
REMARK  101  A    between atoms: _243  and  _244
REMARK  102  A    between atoms: _249  and  _251
REMARK  103  A    between atoms: _251  and  _252
REMARK  104  A    between atoms: _251  and  _254
REMARK  105  A    between atoms: _254  and  _255
REMARK  106  A    between atoms: _255  and  _256
REMARK  107  A    between atoms: _256  and  _257
REMARK  108  A    between atoms: _257  and  _258
REMARK  109  A    between atoms: _262  and  _264
REMARK  110  A    between atoms: _264  and  _265
REMARK  111  A    between atoms: _268  and  _270
REMARK  112  A    between atoms: _270  and  _271
REMARK  113  A    between atoms: _273  and  _275
REMARK  114  A    between atoms: _275  and  _276
REMARK  115  A    between atoms: _275  and  _278
REMARK  116  A    between atoms: _278  and  _279
REMARK  117  A    between atoms: _284  and  _286
REMARK  118  A    between atoms: _286  and  _287
REMARK  119  A    between atoms: _286  and  _289
REMARK  120  A    between atoms: _289  and  _290
REMARK  121  A    between atoms: _290  and  _291
REMARK  122  A    between atoms: _294  and  _296
REMARK  123  A    between atoms: _296  and  _297
REMARK  124  A    between atoms: _296  and  _299
REMARK  125  A    between atoms: _299  and  _300
REMARK  126  A    between atoms: _300  and  _301
REMARK  127  A    between atoms: _306  and  _308
REMARK  128  A    between atoms: _308  and  _309
REMARK  129  A    between atoms: _308  and  _311
REMARK  130  A    between atoms: _311  and  _312
REMARK  131  A    between atoms: _314  and  _316
REMARK  132  A    between atoms: _316  and  _317
REMARK  133  A    between atoms: _316  and  _319
REMARK  134  A    between atoms: _319  and  _320
REMARK  135  A    between atoms: _326  and  _328
REMARK  136  A    between atoms: _328  and  _329
REMARK  137  A    between atoms: _328  and  _331
REMARK  138  A    between atoms: _334  and  _336
REMARK  139  A    between atoms: _336  and  _337
REMARK  140  A    between atoms: _336  and  _339
REMARK  141  A    between atoms: _339  and  _340
REMARK  142  A    between atoms: _343  and  _345
REMARK  143  A    between atoms: _345  and  _346
REMARK  144  A    between atoms: _345  and  _348
REMARK  145  A    between atoms: _348  and  _349
REMARK  146  A    between atoms: _352  and  _354
REMARK  147  A    between atoms: _354  and  _355
REMARK  148  A    between atoms: _354  and  _357
REMARK  149  A    between atoms: _357  and  _358
REMARK  150  A    between atoms: _361  and  _363
REMARK  151  A    between atoms: _363  and  _364
REMARK  152  A    between atoms: _363  and  _366
REMARK  153  A    between atoms: _366  and  _367
REMARK  154  A    between atoms: _370  and  _372
REMARK  155  A    between atoms: _372  and  _373
REMARK  156  A    between atoms: _372  and  _375
REMARK  157  A    between atoms: _375  and  _376
REMARK  158  A    between atoms: _381  and  _382
REMARK  159  A    between atoms: _384  and  _386
REMARK  160  A    between atoms: _386  and  _387
REMARK  161  A    between atoms: _386  and  _389
REMARK  162  A    between atoms: _389  and  _390
REMARK  163  A    between atoms: _395  and  _396
REMARK  164  A    between atoms: _398  and  _400
REMARK  165  A    between atoms: _400  and  _401
REMARK  166  A    between atoms: _400  and  _403
REMARK  167  A    between atoms: _403  and  _404
REMARK  168  A    between atoms: _407  and  _409
REMARK  169  A    between atoms: _409  and  _410
REMARK  170  A    between atoms: _409  and  _412
REMARK  171  A    between atoms: _412  and  _413
REMARK  172  A    between atoms: _416  and  _418
REMARK  173  A    between atoms: _418  and  _419
REMARK  174  A    between atoms: _418  and  _421
REMARK  175  A    between atoms: _421  and  _422
REMARK  176  A    between atoms: _422  and  _423
REMARK  177  A    between atoms: _428  and  _430
REMARK  178  A    between atoms: _430  and  _431
REMARK  179  A    between atoms: _430  and  _433
REMARK  180  A    between atoms: _436  and  _438
REMARK  181  A    between atoms: _438  and  _439
REMARK  182  A    between atoms: _438  and  _441
REMARK  183  A    between atoms: _441  and  _442
REMARK  184  A    between atoms: _445  and  _447
REMARK  185  A    between atoms: _447  and  _448
REMARK  186  A    between atoms: _447  and  _450
REMARK  187  A    between atoms: _450  and  _451
REMARK  188  A    between atoms: _453  and  _455
REMARK  189  A    between atoms: _455  and  _456
REMARK  190  A    between atoms: _458  and  _460
REMARK  191  A    between atoms: _460  and  _461
REMARK  192  A    between atoms: _460  and  _463
REMARK  193  A    between atoms: _463  and  _464
REMARK  194  A    between atoms: _464  and  _759
REMARK  195  A    between atoms: _465  and  _467
REMARK  196  A    between atoms: _467  and  _468
REMARK  197  A    between atoms: _467  and  _470
REMARK  198  A    between atoms: _470  and  _471
REMARK  199  A    between atoms: _476  and  _477
REMARK  200  A    between atoms: _479  and  _481
REMARK  201  A    between atoms: _481  and  _482
REMARK  202  A    between atoms: _481  and  _484
REMARK  203  A    between atoms: _484  and  _485
REMARK  204  A    between atoms: _485  and  _486
REMARK  205  A    between atoms: _491  and  _493
REMARK  206  A    between atoms: _493  and  _494
REMARK  207  A    between atoms: _493  and  _496
REMARK  208  A    between atoms: _496  and  _497
REMARK  209  A    between atoms: _497  and  _498
REMARK  210  A    between atoms: _503  and  _505
REMARK  211  A    between atoms: _505  and  _506
REMARK  212  A    between atoms: _505  and  _508
REMARK  213  A    between atoms: _508  and  _509
REMARK  214  A    between atoms: _514  and  _515
REMARK  215  A    between atoms: _517  and  _519
REMARK  216  A    between atoms: _519  and  _520
REMARK  217  A    between atoms: _523  and  _525
REMARK  218  A    between atoms: _525  and  _526
REMARK  219  A    between atoms: _525  and  _528
REMARK  220  A    between atoms: _528  and  _529
REMARK  221  A    between atoms: _534  and  _535
REMARK  222  A    between atoms: _537  and  _539
REMARK  223  A    between atoms: _539  and  _540
REMARK  224  A    between atoms: _539  and  _542
REMARK  225  A    between atoms: _542  and  _543
REMARK  226  A    between atoms: _548  and  _549
REMARK  227  A    between atoms: _551  and  _553
REMARK  228  A    between atoms: _553  and  _554
REMARK  229  A    between atoms: _553  and  _556
REMARK  230  A    between atoms: _556  and  _557
REMARK  231  A    between atoms: _560  and  _562
REMARK  232  A    between atoms: _562  and  _563
REMARK  233  A    between atoms: _562  and  _565
REMARK  234  A    between atoms: _565  and  _566
REMARK  235  A    between atoms: _576  and  _578
REMARK  236  A    between atoms: _578  and  _579
REMARK  237  A    between atoms: _582  and  _584
REMARK  238  A    between atoms: _584  and  _585
REMARK  239  A    between atoms: _588  and  _590
REMARK  240  A    between atoms: _590  and  _591
REMARK  241  A    between atoms: _590  and  _593
REMARK  242  A    between atoms: _593  and  _594
REMARK  243  A    between atoms: _597  and  _599
REMARK  244  A    between atoms: _599  and  _600
REMARK  245  A    between atoms: _599  and  _602
REMARK  246  A    between atoms: _602  and  _603
REMARK  247  A    between atoms: _606  and  _608
REMARK  248  A    between atoms: _608  and  _609
REMARK  249  A    between atoms: _608  and  _611
REMARK  250  A    between atoms: _611  and  _612
REMARK  251  A    between atoms: _615  and  _617
REMARK  252  A    between atoms: _617  and  _618
REMARK  253  A    between atoms: _617  and  _620
REMARK  254  A    between atoms: _620  and  _621
REMARK  255  A    between atoms: _621  and  _622
REMARK  256  A    between atoms: _622  and  _623
REMARK  257  A    between atoms: _623  and  _624
REMARK  258  A    between atoms: _628  and  _630
REMARK  259  A    between atoms: _630  and  _631
REMARK  260  A    between atoms: _630  and  _633
REMARK  261  A    between atoms: _633  and  _634
REMARK  262  A    between atoms: _639  and  _641
REMARK  263  A    between atoms: _641  and  _642
REMARK  264  A    between atoms: _641  and  _644
REMARK  265  A    between atoms: _644  and  _645
REMARK  266  A    between atoms: _645  and  _646
REMARK  267  A    between atoms: _646  and  _647
REMARK  268  A    between atoms: _647  and  _648
REMARK  269  A    between atoms: _652  and  _654
REMARK  270  A    between atoms: _654  and  _655
REMARK  271  A    between atoms: _654  and  _657
REMARK  272  A    between atoms: _657  and  _658
REMARK  273  A    between atoms: _668  and  _670
REMARK  274  A    between atoms: _670  and  _671
REMARK  275  A    between atoms: _674  and  _676
REMARK  276  A    between atoms: _676  and  _677
REMARK  277  A    between atoms: _679  and  _681
REMARK  278  A    between atoms: _681  and  _682
REMARK  279  A    between atoms: _681  and  _684
REMARK  280  A    between atoms: _684  and  _685
REMARK  281  A    between atoms: _685  and  _686
REMARK  282  A    between atoms: _689  and  _691
REMARK  283  A    between atoms: _691  and  _692
REMARK  284  A    between atoms: _695  and  _697
REMARK  285  A    between atoms: _697  and  _698
REMARK  286  A    between atoms: _697  and  _700
REMARK  287  A    between atoms: _700  and  _701
REMARK  288  A    between atoms: _701  and  _702
REMARK  289  A    between atoms: _702  and  _703
REMARK  290  A    between atoms: _712  and  _714
REMARK  291  A    between atoms: _714  and  _715
REMARK  292  A    between atoms: _714  and  _717
REMARK  293  A    between atoms: _717  and  _718
REMARK  294  A    between atoms: _721  and  _723
REMARK  295  A    between atoms: _723  and  _724
REMARK  296  A    between atoms: _723  and  _726
REMARK  297  A    between atoms: _726  and  _727
REMARK  298  A    between atoms: _732  and  _733
REMARK  299  A    between atoms: _735  and  _737
REMARK  300  A    between atoms: _737  and  _738
REMARK  301  A    between atoms: _737  and  _740
REMARK  302  A    between atoms: _740  and  _741
REMARK  303  A    between atoms: _744  and  _746
REMARK  304  A    between atoms: _746  and  _747
REMARK  305  A    between atoms: _746  and  _749
REMARK  306  A    between atoms: _749  and  _750
REMARK  307  A    between atoms: _753  and  _755
REMARK  308  A    between atoms: _755  and  _756
REMARK  309  A    between atoms: _755  and  _758
REMARK  310  A    between atoms: _758  and  _759
REMARK  311  A    between atoms: _760  and  _762
REMARK  312  A    between atoms: _762  and  _763
REMARK  313  A    between atoms: _762  and  _765
REMARK  314  A    between atoms: _768  and  _770
REMARK  315  A    between atoms: _770  and  _771
REMARK  316  A    between atoms: _770  and  _773
REMARK  317  A    between atoms: _773  and  _774
REMARK  318  A    between atoms: _774  and  _775
REMARK  319  A    between atoms: _778  and  _780
REMARK  320  A    between atoms: _780  and  _781
REMARK  321  A    between atoms: _780  and  _783
REMARK  322  A    between atoms: _783  and  _784
REMARK  323  A    between atoms: _794  and  _796
REMARK  324  A    between atoms: _796  and  _797
REMARK  325  A    between atoms: _796  and  _799
REMARK  326  A    between atoms: _799  and  _800
REMARK  327  A    between atoms: _803  and  _805
REMARK  328  A    between atoms: _805  and  _806
REMARK  329  A    between atoms: _805  and  _808
REMARK  330  A    between atoms: _808  and  _809
REMARK  331  A    between atoms: _809  and  _810
REMARK  332  A    between atoms: _810  and  _811
REMARK  333  A    between atoms: _820  and  _822
REMARK  334  A    between atoms: _822  and  _823
REMARK  335  A    between atoms: _822  and  _825
REMARK  336  A    between atoms: _825  and  _826
REMARK  337  A    between atoms: _831  and  _832
REMARK                            x       y       z     vdW  Elec       q    Type
REMARK                         _______ _______ _______ _____ _____    ______ ____
ROOT
ATOM      1  C   ARG A   1      55.984  11.340  10.541  0.00  0.00    +0.238 C 
ATOM      2  O   ARG A   1      55.750  11.188  11.743  0.00  0.00    -0.274 OA
ATOM      3  N   TYR A   2      55.172  12.007   9.725  0.00  0.00    -0.298 N 
ATOM      4  H   TYR A   2      55.420  12.093   8.719  0.00  0.00    +0.150 HD
ENDROOT
BRANCH   1   5
ATOM      5  CA  ARG A   1      57.249  10.738   9.917  0.00  0.00    +0.145 C 
BRANCH   5   6
ATOM      6  N   ARG A   1      56.997  10.129   8.615  0.00  0.00    -0.238 NA
ATOM      7  H   ARG A   1      57.517  10.479   7.785  0.00  0.00    +0.142 HD
ENDBRANCH   5   6
BRANCH   5   8
ATOM      8  CB  ARG A   1      58.334  11.804   9.792  0.00  0.00    +0.030 C 
BRANCH   8   9
ATOM      9  CG  ARG A   1      58.609  12.580  11.069  0.00  0.00    +0.045 C 
BRANCH   9  10
ATOM     10  CD  ARG A   1      59.657  13.635  10.799  0.00  0.00    +0.174 C 
BRANCH  10  11
ATOM     11  NE  ARG A   1      59.869  14.517  11.942  0.00  0.00    -0.265 N 
ATOM     12  CZ  ARG A   1      60.617  14.222  13.002  0.00  0.00    +0.342 C 
ATOM     13  NH2 ARG A   1      60.743  15.110  13.980  0.00  0.00    -0.292 N 
ATOM     14 HH21 ARG A   1      61.326  14.888  14.812  0.00  0.00    +0.255 HD
ATOM     15 HH22 ARG A   1      60.259  16.028  13.914  0.00  0.00    +0.255 HD
ATOM     16  NH1 ARG A   1      61.234  13.049  13.100  0.00  0.00    -0.292 N 
ATOM     17 HH11 ARG A   1      61.815  12.835  13.936  0.00  0.00    +0.255 HD
ATOM     18 HH12 ARG A   1      61.136  12.345  12.341  0.00  0.00    +0.255 HD
ATOM     19  HE  ARG A   1      59.400  15.445  11.927  0.00  0.00    +0.259 HD
ENDBRANCH  10  11
ENDBRANCH   9  10
ENDBRANCH   8   9
ENDBRANCH   5   8
ENDBRANCH   1   5
BRANCH   3  20
ATOM     20  CA  TYR A   2      53.936  12.622  10.214  0.00  0.00    +0.141 C 
BRANCH  20  21
ATOM     21  C   TYR A   2      52.914  11.580  10.640  0.00  0.00    +0.227 C 
ATOM     22  O   TYR A   2      52.267  11.732  11.682  0.00  0.00    -0.286 OA
ENDBRANCH  20  21
BRANCH  20  23
ATOM     23  CB  TYR A   2      53.316  13.539   9.154  0.00  0.00    +0.054 C 
BRANCH  23  24
ATOM     24  CG  TYR A   2      54.194  14.699   8.724  0.00  0.00    -0.020 A 
ATOM     25  CD2 TYR A   2      54.994  15.385   9.642  0.00  0.00    -0.001 A 
ATOM     26  CE2 TYR A   2      55.791  16.446   9.247  0.00  0.00    +0.036 A 
ATOM     27  CZ  TYR A   2      55.794  16.841   7.924  0.00  0.00    +0.134 A 
ATOM     28  CE1 TYR A   2      55.009  16.179   6.997  0.00  0.00    +0.036 A 
ATOM     29  CD1 TYR A   2      54.212  15.121   7.400  0.00  0.00    -0.001 A 
BRANCH  27  30
ATOM     30  OH  TYR A   2      56.580  17.899   7.529  0.00  0.00    -0.506 OA
ATOM     31  HH  TYR A   2      56.007  18.611   7.148  0.00  0.00    +0.292 HD
ENDBRANCH  27  30
ENDBRANCH  23  24
ENDBRANCH  20  23
ENDBRANCH   3  20
TORSDOF 11
REMARK  Name = ../refined-set-2016/4pg9/4pg9_pocket.pdb
REMARK  337 active torsions:
REMARK  status: ('A' for Active; 'I' for Inactive)
REMARK    1  A    between atoms: _1  and  _3
REMARK    2  A    between atoms: _3  and  _4
REMARK    3  A    between atoms: _3  and  _6
REMARK    4  A    between atoms: _6  and  _7
REMARK    5  A    between atoms: _10  and  _12
REMARK    6  A    between atoms: _12  and  _13
REMARK    7  A    between atoms: _12  and  _15
REMARK    8  A    between atoms: _15  and  _16
REMARK    9  A    between atoms: _16  and  _17
REMARK   10  A    between atoms: _17  and  _18
REMARK   11  A    between atoms: _27  and  _29
REMARK   12  A    between atoms: _29  and  _30
REMARK   13  A    between atoms: _29  and  _32
REMARK   14  A    between atoms: _32  and  _33
REMARK   15  A    between atoms: _38  and  _39
REMARK   16  A    between atoms: _41  and  _43
REMARK   17  A    between atoms: _43  and  _44
REMARK   18  A    between atoms: _43  and  _46
REMARK   19  A    between atoms: _46  and  _47
REMARK   20  A    between atoms: _53  and  _55
REMARK   21  A    between atoms: _55  and  _56
REMARK   22  A    between atoms: _55  and  _58
REMARK   23  A    between atoms: _61  and  _63
REMARK   24  A    between atoms: _63  and  _64
REMARK   25  A    between atoms: _63  and  _66
REMARK   26  A    between atoms: _66  and  _67
REMARK   27  A    between atoms: _70  and  _72
REMARK   28  A    between atoms: _72  and  _73
REMARK   29  A    between atoms: _72  and  _75
REMARK   30  A    between atoms: _75  and  _76
REMARK   31  A    between atoms: _81  and  _82
REMARK   32  A    between atoms: _84  and  _86
REMARK   33  A    between atoms: _86  and  _87
REMARK   34  A    between atoms: _86  and  _89
REMARK   35  A    between atoms: _89  and  _90
REMARK   36  A    between atoms: _90  and  _91
REMARK   37  A    between atoms: _93  and  _95
REMARK   38  A    between atoms: _95  and  _96
REMARK   39  A    between atoms: _95  and  _98
REMARK   40  A    between atoms: _98  and  _99
REMARK   41  A    between atoms: _99  and  _100
REMARK   42  A    between atoms: _103  and  _105
REMARK   43  A    between atoms: _105  and  _106
REMARK   44  A    between atoms: _105  and  _108
REMARK   45  A    between atoms: _111  and  _113
REMARK   46  A    between atoms: _113  and  _114
REMARK   47  A    between atoms: _116  and  _118
REMARK   48  A    between atoms: _118  and  _119
REMARK   49  A    between atoms: _118  and  _121
REMARK   50  A    between atoms: _124  and  _126
REMARK   51  A    between atoms: _126  and  _127
REMARK   52  A    between atoms: _126  and  _129
REMARK   53  A    between atoms: _129  and  _130
REMARK   54  A    between atoms: _136  and  _138
REMARK   55  A    between atoms: _138  and  _139
REMARK   56  A    between atoms: _138  and  _141
REMARK   57  A    between atoms: _144  and  _146
REMARK   58  A    between atoms: _146  and  _147
REMARK   59  A    between atoms: _146  and  _149
REMARK   60  A    between atoms: _149  and  _150
REMARK   61  A    between atoms: _155  and  _156
REMARK   62  A    between atoms: _158  and  _160
REMARK   63  A    between atoms: _160  and  _161
REMARK   64  A    between atoms: _160  and  _163
REMARK   65  A    between atoms: _163  and  _164
REMARK   66  A    between atoms: _164  and  _165
REMARK   67  A    between atoms: _167  and  _169
REMARK   68  A    between atoms: _169  and  _170
REMARK   69  A    between atoms: _169  and  _172
REMARK   70  A    between atoms: _172  and  _173
REMARK   71  A    between atoms: _173  and  _174
REMARK   72  A    between atoms: _177  and  _179
REMARK   73  A    between atoms: _179  and  _180
REMARK   74  A    between atoms: _179  and  _182
REMARK   75  A    between atoms: _182  and  _183
REMARK   76  A    between atoms: _183  and  _184
REMARK   77  A    between atoms: _187  and  _189
REMARK   78  A    between atoms: _189  and  _190
REMARK   79  A    between atoms: _189  and  _192
REMARK   80  A    between atoms: _192  and  _193
REMARK   81  A    between atoms: _198  and  _199
REMARK   82  A    between atoms: _201  and  _203
REMARK   83  A    between atoms: _203  and  _204
REMARK   84  A    between atoms: _203  and  _206
REMARK   85  A    between atoms: _206  and  _207
REMARK   86  A    between atoms: _207  and  _208
REMARK   87  A    between atoms: _208  and  _209
REMARK   88  A    between atoms: _218  and  _220
REMARK   89  A    between atoms: _220  and  _221
REMARK   90  A    between atoms: _220  and  _223
REMARK   91  A    between atoms: _223  and  _224
REMARK   92  A    between atoms: _224  and  _225
REMARK   93  A    between atoms: _228  and  _230
REMARK   94  A    between atoms: _230  and  _231
REMARK   95  A    between atoms: _230  and  _233
REMARK   96  A    between atoms: _233  and  _234
REMARK   97  A    between atoms: _237  and  _239
REMARK   98  A    between atoms: _239  and  _240
REMARK   99  A    between atoms: _239  and  _242
REMARK  100  A    between atoms: _242  and  _243
REMARK  101  A    between atoms: _243  and  _244
REMARK  102  A    between atoms: _249  and  _251
REMARK  103  A    between atoms: _251  and  _252
REMARK  104  A    between atoms: _251  and  _254
REMARK  105  A    between atoms: _254  and  _255
REMARK  106  A    between atoms: _255  and  _256
REMARK  107  A    between atoms: _256  and  _257
REMARK  108  A    between atoms: _257  and  _258
REMARK  109  A    between atoms: _262  and  _264
REMARK  110  A    between atoms: _264  and  _265
REMARK  111  A    between atoms: _268  and  _270
REMARK  112  A    between atoms: _270  and  _271
REMARK  113  A    between atoms: _273  and  _275
REMARK  114  A    between atoms: _275  and  _276
REMARK  115  A    between atoms: _275  and  _278
REMARK  116  A    between atoms: _278  and  _279
REMARK  117  A    between atoms: _284  and  _286
REMARK  118  A    between atoms: _286  and  _287
REMARK  119  A    between atoms: _286  and  _289
REMARK  120  A    between atoms: _289  and  _290
REMARK  121  A    between atoms: _290  and  _291
REMARK  122  A    between atoms: _294  and  _296
REMARK  123  A    between atoms: _296  and  _297
REMARK  124  A    between atoms: _296  and  _299
REMARK  125  A    between atoms: _299  and  _300
REMARK  126  A    between atoms: _300  and  _301
REMARK  127  A    between atoms: _306  and  _308
REMARK  128  A    between atoms: _308  and  _309
REMARK  129  A    between atoms: _308  and  _311
REMARK  130  A    between atoms: _311  and  _312
REMARK  131  A    between atoms: _314  and  _316
REMARK  132  A    between atoms: _316  and  _317
REMARK  133  A    between atoms: _316  and  _319
REMARK  134  A    between atoms: _319  and  _320
REMARK  135  A    between atoms: _326  and  _328
REMARK  136  A    between atoms: _328  and  _329
REMARK  137  A    between atoms: _328  and  _331
REMARK  138  A    between atoms: _334  and  _336
REMARK  139  A    between atoms: _336  and  _337
REMARK  140  A    between atoms: _336  and  _339
REMARK  141  A    between atoms: _339  and  _340
REMARK  142  A    between atoms: _343  and  _345
REMARK  143  A    between atoms: _345  and  _346
REMARK  144  A    between atoms: _345  and  _348
REMARK  145  A    between atoms: _348  and  _349
REMARK  146  A    between atoms: _352  and  _354
REMARK  147  A    between atoms: _354  and  _355
REMARK  148  A    between atoms: _354  and  _357
REMARK  149  A    between atoms: _357  and  _358
REMARK  150  A    between atoms: _361  and  _363
REMARK  151  A    between atoms: _363  and  _364
REMARK  152  A    between atoms: _363  and  _366
REMARK  153  A    between atoms: _366  and  _367
REMARK  154  A    between atoms: _370  and  _372
REMARK  155  A    between atoms: _372  and  _373
REMARK  156  A    between atoms: _372  and  _375
REMARK  157  A    between atoms: _375  and  _376
REMARK  158  A    between atoms: _381  and  _382
REMARK  159  A    between atoms: _384  and  _386
REMARK  160  A    between atoms: _386  and  _387
REMARK  161  A    between atoms: _386  and  _389
REMARK  162  A    between atoms: _389  and  _390
REMARK  163  A    between atoms: _395  and  _396
REMARK  164  A    between atoms: _398  and  _400
REMARK  165  A    between atoms: _400  and  _401
REMARK  166  A    between atoms: _400  and  _403
REMARK  167  A    between atoms: _403  and  _404
REMARK  168  A    between atoms: _407  and  _409
REMARK  169  A    between atoms: _409  and  _410
REMARK  170  A    between atoms: _409  and  _412
REMARK  171  A    between atoms: _412  and  _413
REMARK  172  A    between atoms: _416  and  _418
REMARK  173  A    between atoms: _418  and  _419
REMARK  174  A    between atoms: _418  and  _421
REMARK  175  A    between atoms: _421  and  _422
REMARK  176  A    between atoms: _422  and  _423
REMARK  177  A    between atoms: _428  and  _430
REMARK  178  A    between atoms: _430  and  _431
REMARK  179  A    between atoms: _430  and  _433
REMARK  180  A    between atoms: _436  and  _438
REMARK  181  A    between atoms: _438  and  _439
REMARK  182  A    between atoms: _438  and  _441
REMARK  183  A    between atoms: _441  and  _442
REMARK  184  A    between atoms: _445  and  _447
REMARK  185  A    between atoms: _447  and  _448
REMARK  186  A    between atoms: _447  and  _450
REMARK  187  A    between atoms: _450  and  _451
REMARK  188  A    between atoms: _453  and  _455
REMARK  189  A    between atoms: _455  and  _456
REMARK  190  A    between atoms: _458  and  _460
REMARK  191  A    between atoms: _460  and  _461
REMARK  192  A    between atoms: _460  and  _463
REMARK  193  A    between atoms: _463  and  _464
REMARK  194  A    between atoms: _464  and  _759
REMARK  195  A    between atoms: _465  and  _467
REMARK  196  A    between atoms: _467  and  _468
REMARK  197  A    between atoms: _467  and  _470
REMARK  198  A    between atoms: _470  and  _471
REMARK  199  A    between atoms: _476  and  _477
REMARK  200  A    between atoms: _479  and  _481
REMARK  201  A    between atoms: _481  and  _482
REMARK  202  A    between atoms: _481  and  _484
REMARK  203  A    between atoms: _484  and  _485
REMARK  204  A    between atoms: _485  and  _486
REMARK  205  A    between atoms: _491  and  _493
REMARK  206  A    between atoms: _493  and  _494
REMARK  207  A    between atoms: _493  and  _496
REMARK  208  A    between atoms: _496  and  _497
REMARK  209  A    between atoms: _497  and  _498
REMARK  210  A    between atoms: _503  and  _505
REMARK  211  A    between atoms: _505  and  _506
REMARK  212  A    between atoms: _505  and  _508
REMARK  213  A    between atoms: _508  and  _509
REMARK  214  A    between atoms: _514  and  _515
REMARK  215  A    between atoms: _517  and  _519
REMARK  216  A    between atoms: _519  and  _520
REMARK  217  A    between atoms: _523  and  _525
REMARK  218  A    between atoms: _525  and  _526
REMARK  219  A    between atoms: _525  and  _528
REMARK  220  A    between atoms: _528  and  _529
REMARK  221  A    between atoms: _534  and  _535
REMARK  222  A    between atoms: _537  and  _539
REMARK  223  A    between atoms: _539  and  _540
REMARK  224  A    between atoms: _539  and  _542
REMARK  225  A    between atoms: _542  and  _543
REMARK  226  A    between atoms: _548  and  _549
REMARK  227  A    between atoms: _551  and  _553
REMARK  228  A    between atoms: _553  and  _554
REMARK  229  A    between atoms: _553  and  _556
REMARK  230  A    between atoms: _556  and  _557
REMARK  231  A    between atoms: _560  and  _562
REMARK  232  A    between atoms: _562  and  _563
REMARK  233  A    between atoms: _562  and  _565
REMARK  234  A    between atoms: _565  and  _566
REMARK  235  A    between atoms: _576  and  _578
REMARK  236  A    between atoms: _578  and  _579
REMARK  237  A    between atoms: _582  and  _584
REMARK  238  A    between atoms: _584  and  _585
REMARK  239  A    between atoms: _588  and  _590
REMARK  240  A    between atoms: _590  and  _591
REMARK  241  A    between atoms: _590  and  _593
REMARK  242  A    between atoms: _593  and  _594
REMARK  243  A    between atoms: _597  and  _599
REMARK  244  A    between atoms: _599  and  _600
REMARK  245  A    between atoms: _599  and  _602
REMARK  246  A    between atoms: _602  and  _603
REMARK  247  A    between atoms: _606  and  _608
REMARK  248  A    between atoms: _608  and  _609
REMARK  249  A    between atoms: _608  and  _611
REMARK  250  A    between atoms: _611  and  _612
REMARK  251  A    between atoms: _615  and  _617
REMARK  252  A    between atoms: _617  and  _618
REMARK  253  A    between atoms: _617  and  _620
REMARK  254  A    between atoms: _620  and  _621
REMARK  255  A    between atoms: _621  and  _622
REMARK  256  A    between atoms: _622  and  _623
REMARK  257  A    between atoms: _623  and  _624
REMARK  258  A    between atoms: _628  and  _630
REMARK  259  A    between atoms: _630  and  _631
REMARK  260  A    between atoms: _630  and  _633
REMARK  261  A    between atoms: _633  and  _634
REMARK  262  A    between atoms: _639  and  _641
REMARK  263  A    between atoms: _641  and  _642
REMARK  264  A    between atoms: _641  and  _644
REMARK  265  A    between atoms: _644  and  _645
REMARK  266  A    between atoms: _645  and  _646
REMARK  267  A    between atoms: _646  and  _647
REMARK  268  A    between atoms: _647  and  _648
REMARK  269  A    between atoms: _652  and  _654
REMARK  270  A    between atoms: _654  and  _655
REMARK  271  A    between atoms: _654  and  _657
REMARK  272  A    between atoms: _657  and  _658
REMARK  273  A    between atoms: _668  and  _670
REMARK  274  A    between atoms: _670  and  _671
REMARK  275  A    between atoms: _674  and  _676
REMARK  276  A    between atoms: _676  and  _677
REMARK  277  A    between atoms: _679  and  _681
REMARK  278  A    between atoms: _681  and  _682
REMARK  279  A    between atoms: _681  and  _684
REMARK  280  A    between atoms: _684  and  _685
REMARK  281  A    between atoms: _685  and  _686
REMARK  282  A    between atoms: _689  and  _691
REMARK  283  A    between atoms: _691  and  _692
REMARK  284  A    between atoms: _695  and  _697
REMARK  285  A    between atoms: _697  and  _698
REMARK  286  A    between atoms: _697  and  _700
REMARK  287  A    between atoms: _700  and  _701
REMARK  288  A    between atoms: _701  and  _702
REMARK  289  A    between atoms: _702  and  _703
REMARK  290  A    between atoms: _712  and  _714
REMARK  291  A    between atoms: _714  and  _715
REMARK  292  A    between atoms: _714  and  _717
REMARK  293  A    between atoms: _717  and  _718
REMARK  294  A    between atoms: _721  and  _723
REMARK  295  A    between atoms: _723  and  _724
REMARK  296  A    between atoms: _723  and  _726
REMARK  297  A    between atoms: _726  and  _727
REMARK  298  A    between atoms: _732  and  _733
REMARK  299  A    between atoms: _735  and  _737
REMARK  300  A    between atoms: _737  and  _738
REMARK  301  A    between atoms: _737  and  _740
REMARK  302  A    between atoms: _740  and  _741
REMARK  303  A    between atoms: _744  and  _746
REMARK  304  A    between atoms: _746  and  _747
REMARK  305  A    between atoms: _746  and  _749
REMARK  306  A    between atoms: _749  and  _750
REMARK  307  A    between atoms: _753  and  _755
REMARK  308  A    between atoms: _755  and  _756
REMARK  309  A    between atoms: _755  and  _758
REMARK  310  A    between atoms: _758  and  _759
REMARK  311  A    between atoms: _760  and  _762
REMARK  312  A    between atoms: _762  and  _763
REMARK  313  A    between atoms: _762  and  _765
REMARK  314  A    between atoms: _768  and  _770
REMARK  315  A    between atoms: _770  and  _771
REMARK  316  A    between atoms: _770  and  _773
REMARK  317  A    between atoms: _773  and  _774
REMARK  318  A    between atoms: _774  and  _775
REMARK  319  A    between atoms: _778  and  _780
REMARK  320  A    between atoms: _780  and  _781
REMARK  321  A    between atoms: _780  and  _783
REMARK  322  A    between atoms: _783  and  _784
REMARK  323  A    between atoms: _794  and  _796
REMARK  324  A    between atoms: _796  and  _797
REMARK  325  A    between atoms: _796  and  _799
REMARK  326  A    between atoms: _799  and  _800
REMARK  327  A    between atoms: _803  and  _805
REMARK  328  A    between atoms: _805  and  _806
REMARK  329  A    between atoms: _805  and  _808
REMARK  330  A    between atoms: _808  and  _809
REMARK  331  A    between atoms: _809  and  _810
REMARK  332  A    between atoms: _810  and  _811
REMARK  333  A    between atoms: _820  and  _822
REMARK  334  A    between atoms: _822  and  _823
REMARK  335  A    between atoms: _822  and  _825
REMARK  336  A    between atoms: _825  and  _826
REMARK  337  A    between atoms: _831  and  _832
REMARK                            x       y       z     vdW  Elec       q    Type
REMARK                         _______ _______ _______ _____ _____    ______ ____
ROOT
ATOM      1  O   HOH     1      57.067  30.079  -9.322  0.00  0.00    +0.000 OA
ENDROOT
TORSDOF 0
REMARK  Name = ../refined-set-2016/4pg9/4pg9_pocket.pdb
REMARK  337 active torsions:
REMARK  status: ('A' for Active; 'I' for Inactive)
REMARK    1  A    between atoms: _1  and  _3
REMARK    2  A    between atoms: _3  and  _4
REMARK    3  A    between atoms: _3  and  _6
REMARK    4  A    between atoms: _6  and  _7
REMARK    5  A    between atoms: _10  and  _12
REMARK    6  A    between atoms: _12  and  _13
REMARK    7  A    between atoms: _12  and  _15
REMARK    8  A    between atoms: _15  and  _16
REMARK    9  A    between atoms: _16  and  _17
REMARK   10  A    between atoms: _17  and  _18
REMARK   11  A    between atoms: _27  and  _29
REMARK   12  A    between atoms: _29  and  _30
REMARK   13  A    between atoms: _29  and  _32
REMARK   14  A    between atoms: _32  and  _33
REMARK   15  A    between atoms: _38  and  _39
REMARK   16  A    between atoms: _41  and  _43
REMARK   17  A    between atoms: _43  and  _44
REMARK   18  A    between atoms: _43  and  _46
REMARK   19  A    between atoms: _46  and  _47
REMARK   20  A    between atoms: _53  and  _55
REMARK   21  A    between atoms: _55  and  _56
REMARK   22  A    between atoms: _55  and  _58
REMARK   23  A    between atoms: _61  and  _63
REMARK   24  A    between atoms: _63  and  _64
REMARK   25  A    between atoms: _63  and  _66
REMARK   26  A    between atoms: _66  and  _67
REMARK   27  A    between atoms: _70  and  _72
REMARK   28  A    between atoms: _72  and  _73
REMARK   29  A    between atoms: _72  and  _75
REMARK   30  A    between atoms: _75  and  _76
REMARK   31  A    between atoms: _81  and  _82
REMARK   32  A    between atoms: _84  and  _86
REMARK   33  A    between atoms: _86  and  _87
REMARK   34  A    between atoms: _86  and  _89
REMARK   35  A    between atoms: _89  and  _90
REMARK   36  A    between atoms: _90  and  _91
REMARK   37  A    between atoms: _93  and  _95
REMARK   38  A    between atoms: _95  and  _96
REMARK   39  A    between atoms: _95  and  _98
REMARK   40  A    between atoms: _98  and  _99
REMARK   41  A    between atoms: _99  and  _100
REMARK   42  A    between atoms: _103  and  _105
REMARK   43  A    between atoms: _105  and  _106
REMARK   44  A    between atoms: _105  and  _108
REMARK   45  A    between atoms: _111  and  _113
REMARK   46  A    between atoms: _113  and  _114
REMARK   47  A    between atoms: _116  and  _118
REMARK   48  A    between atoms: _118  and  _119
REMARK   49  A    between atoms: _118  and  _121
REMARK   50  A    between atoms: _124  and  _126
REMARK   51  A    between atoms: _126  and  _127
REMARK   52  A    between atoms: _126  and  _129
REMARK   53  A    between atoms: _129  and  _130
REMARK   54  A    between atoms: _136  and  _138
REMARK   55  A    between atoms: _138  and  _139
REMARK   56  A    between atoms: _138  and  _141
REMARK   57  A    between atoms: _144  and  _146
REMARK   58  A    between atoms: _146  and  _147
REMARK   59  A    between atoms: _146  and  _149
REMARK   60  A    between atoms: _149  and  _150
REMARK   61  A    between atoms: _155  and  _156
REMARK   62  A    between atoms: _158  and  _160
REMARK   63  A    between atoms: _160  and  _161
REMARK   64  A    between atoms: _160  and  _163
REMARK   65  A    between atoms: _163  and  _164
REMARK   66  A    between atoms: _164  and  _165
REMARK   67  A    between atoms: _167  and  _169
REMARK   68  A    between atoms: _169  and  _170
REMARK   69  A    between atoms: _169  and  _172
REMARK   70  A    between atoms: _172  and  _173
REMARK   71  A    between atoms: _173  and  _174
REMARK   72  A    between atoms: _177  and  _179
REMARK   73  A    between atoms: _179  and  _180
REMARK   74  A    between atoms: _179  and  _182
REMARK   75  A    between atoms: _182  and  _183
REMARK   76  A    between atoms: _183  and  _184
REMARK   77  A    between atoms: _187  and  _189
REMARK   78  A    between atoms: _189  and  _190
REMARK   79  A    between atoms: _189  and  _192
REMARK   80  A    between atoms: _192  and  _193
REMARK   81  A    between atoms: _198  and  _199
REMARK   82  A    between atoms: _201  and  _203
REMARK   83  A    between atoms: _203  and  _204
REMARK   84  A    between atoms: _203  and  _206
REMARK   85  A    between atoms: _206  and  _207
REMARK   86  A    between atoms: _207  and  _208
REMARK   87  A    between atoms: _208  and  _209
REMARK   88  A    between atoms: _218  and  _220
REMARK   89  A    between atoms: _220  and  _221
REMARK   90  A    between atoms: _220  and  _223
REMARK   91  A    between atoms: _223  and  _224
REMARK   92  A    between atoms: _224  and  _225
REMARK   93  A    between atoms: _228  and  _230
REMARK   94  A    between atoms: _230  and  _231
REMARK   95  A    between atoms: _230  and  _233
REMARK   96  A    between atoms: _233  and  _234
REMARK   97  A    between atoms: _237  and  _239
REMARK   98  A    between atoms: _239  and  _240
REMARK   99  A    between atoms: _239  and  _242
REMARK  100  A    between atoms: _242  and  _243
REMARK  101  A    between atoms: _243  and  _244
REMARK  102  A    between atoms: _249  and  _251
REMARK  103  A    between atoms: _251  and  _252
REMARK  104  A    between atoms: _251  and  _254
REMARK  105  A    between atoms: _254  and  _255
REMARK  106  A    between atoms: _255  and  _256
REMARK  107  A    between atoms: _256  and  _257
REMARK  108  A    between atoms: _257  and  _258
REMARK  109  A    between atoms: _262  and  _264
REMARK  110  A    between atoms: _264  and  _265
REMARK  111  A    between atoms: _268  and  _270
REMARK  112  A    between atoms: _270  and  _271
REMARK  113  A    between atoms: _273  and  _275
REMARK  114  A    between atoms: _275  and  _276
REMARK  115  A    between atoms: _275  and  _278
REMARK  116  A    between atoms: _278  and  _279
REMARK  117  A    between atoms: _284  and  _286
REMARK  118  A    between atoms: _286  and  _287
REMARK  119  A    between atoms: _286  and  _289
REMARK  120  A    between atoms: _289  and  _290
REMARK  121  A    between atoms: _290  and  _291
REMARK  122  A    between atoms: _294  and  _296
REMARK  123  A    between atoms: _296  and  _297
REMARK  124  A    between atoms: _296  and  _299
REMARK  125  A    between atoms: _299  and  _300
REMARK  126  A    between atoms: _300  and  _301
REMARK  127  A    between atoms: _306  and  _308
REMARK  128  A    between atoms: _308  and  _309
REMARK  129  A    between atoms: _308  and  _311
REMARK  130  A    between atoms: _311  and  _312
REMARK  131  A    between atoms: _314  and  _316
REMARK  132  A    between atoms: _316  and  _317
REMARK  133  A    between atoms: _316  and  _319
REMARK  134  A    between atoms: _319  and  _320
REMARK  135  A    between atoms: _326  and  _328
REMARK  136  A    between atoms: _328  and  _329
REMARK  137  A    between atoms: _328  and  _331
REMARK  138  A    between atoms: _334  and  _336
REMARK  139  A    between atoms: _336  and  _337
REMARK  140  A    between atoms: _336  and  _339
REMARK  141  A    between atoms: _339  and  _340
REMARK  142  A    between atoms: _343  and  _345
REMARK  143  A    between atoms: _345  and  _346
REMARK  144  A    between atoms: _345  and  _348
REMARK  145  A    between atoms: _348  and  _349
REMARK  146  A    between atoms: _352  and  _354
REMARK  147  A    between atoms: _354  and  _355
REMARK  148  A    between atoms: _354  and  _357
REMARK  149  A    between atoms: _357  and  _358
REMARK  150  A    between atoms: _361  and  _363
REMARK  151  A    between atoms: _363  and  _364
REMARK  152  A    between atoms: _363  and  _366
REMARK  153  A    between atoms: _366  and  _367
REMARK  154  A    between atoms: _370  and  _372
REMARK  155  A    between atoms: _372  and  _373
REMARK  156  A    between atoms: _372  and  _375
REMARK  157  A    between atoms: _375  and  _376
REMARK  158  A    between atoms: _381  and  _382
REMARK  159  A    between atoms: _384  and  _386
REMARK  160  A    between atoms: _386  and  _387
REMARK  161  A    between atoms: _386  and  _389
REMARK  162  A    between atoms: _389  and  _390
REMARK  163  A    between atoms: _395  and  _396
REMARK  164  A    between atoms: _398  and  _400
REMARK  165  A    between atoms: _400  and  _401
REMARK  166  A    between atoms: _400  and  _403
REMARK  167  A    between atoms: _403  and  _404
REMARK  168  A    between atoms: _407  and  _409
REMARK  169  A    between atoms: _409  and  _410
REMARK  170  A    between atoms: _409  and  _412
REMARK  171  A    between atoms: _412  and  _413
REMARK  172  A    between atoms: _416  and  _418
REMARK  173  A    between atoms: _418  and  _419
REMARK  174  A    between atoms: _418  and  _421
REMARK  175  A    between atoms: _421  and  _422
REMARK  176  A    between atoms: _422  and  _423
REMARK  177  A    between atoms: _428  and  _430
REMARK  178  A    between atoms: _430  and  _431
REMARK  179  A    between atoms: _430  and  _433
REMARK  180  A    between atoms: _436  and  _438
REMARK  181  A    between atoms: _438  and  _439
REMARK  182  A    between atoms: _438  and  _441
REMARK  183  A    between atoms: _441  and  _442
REMARK  184  A    between atoms: _445  and  _447
REMARK  185  A    between atoms: _447  and  _448
REMARK  186  A    between atoms: _447  and  _450
REMARK  187  A    between atoms: _450  and  _451
REMARK  188  A    between atoms: _453  and  _455
REMARK  189  A    between atoms: _455  and  _456
REMARK  190  A    between atoms: _458  and  _460
REMARK  191  A    between atoms: _460  and  _461
REMARK  192  A    between atoms: _460  and  _463
REMARK  193  A    between atoms: _463  and  _464
REMARK  194  A    between atoms: _464  and  _759
REMARK  195  A    between atoms: _465  and  _467
REMARK  196  A    between atoms: _467  and  _468
REMARK  197  A    between atoms: _467  and  _470
REMARK  198  A    between atoms: _470  and  _471
REMARK  199  A    between atoms: _476  and  _477
REMARK  200  A    between atoms: _479  and  _481
REMARK  201  A    between atoms: _481  and  _482
REMARK  202  A    between atoms: _481  and  _484
REMARK  203  A    between atoms: _484  and  _485
REMARK  204  A    between atoms: _485  and  _486
REMARK  205  A    between atoms: _491  and  _493
REMARK  206  A    between atoms: _493  and  _494
REMARK  207  A    between atoms: _493  and  _496
REMARK  208  A    between atoms: _496  and  _497
REMARK  209  A    between atoms: _497  and  _498
REMARK  210  A    between atoms: _503  and  _505
REMARK  211  A    between atoms: _505  and  _506
REMARK  212  A    between atoms: _505  and  _508
REMARK  213  A    between atoms: _508  and  _509
REMARK  214  A    between atoms: _514  and  _515
REMARK  215  A    between atoms: _517  and  _519
REMARK  216  A    between atoms: _519  and  _520
REMARK  217  A    between atoms: _523  and  _525
REMARK  218  A    between atoms: _525  and  _526
REMARK  219  A    between atoms: _525  and  _528
REMARK  220  A    between atoms: _528  and  _529
REMARK  221  A    between atoms: _534  and  _535
REMARK  222  A    between atoms: _537  and  _539
REMARK  223  A    between atoms: _539  and  _540
REMARK  224  A    between atoms: _539  and  _542
REMARK  225  A    between atoms: _542  and  _543
REMARK  226  A    between atoms: _548  and  _549
REMARK  227  A    between atoms: _551  and  _553
REMARK  228  A    between atoms: _553  and  _554
REMARK  229  A    between atoms: _553  and  _556
REMARK  230  A    between atoms: _556  and  _557
REMARK  231  A    between atoms: _560  and  _562
REMARK  232  A    between atoms: _562  and  _563
REMARK  233  A    between atoms: _562  and  _565
REMARK  234  A    between atoms: _565  and  _566
REMARK  235  A    between atoms: _576  and  _578
REMARK  236  A    between atoms: _578  and  _579
REMARK  237  A    between atoms: _582  and  _584
REMARK  238  A    between atoms: _584  and  _585
REMARK  239  A    between atoms: _588  and  _590
REMARK  240  A    between atoms: _590  and  _591
REMARK  241  A    between atoms: _590  and  _593
REMARK  242  A    between atoms: _593  and  _594
REMARK  243  A    between atoms: _597  and  _599
REMARK  244  A    between atoms: _599  and  _600
REMARK  245  A    between atoms: _599  and  _602
REMARK  246  A    between atoms: _602  and  _603
REMARK  247  A    between atoms: _606  and  _608
REMARK  248  A    between atoms: _608  and  _609
REMARK  249  A    between atoms: _608  and  _611
REMARK  250  A    between atoms: _611  and  _612
REMARK  251  A    between atoms: _615  and  _617
REMARK  252  A    between atoms: _617  and  _618
REMARK  253  A    between atoms: _617  and  _620
REMARK  254  A    between atoms: _620  and  _621
REMARK  255  A    between atoms: _621  and  _622
REMARK  256  A    between atoms: _622  and  _623
REMARK  257  A    between atoms: _623  and  _624
REMARK  258  A    between atoms: _628  and  _630
REMARK  259  A    between atoms: _630  and  _631
REMARK  260  A    between atoms: _630  and  _633
REMARK  261  A    between atoms: _633  and  _634
REMARK  262  A    between atoms: _639  and  _641
REMARK  263  A    between atoms: _641  and  _642
REMARK  264  A    between atoms: _641  and  _644
REMARK  265  A    between atoms: _644  and  _645
REMARK  266  A    between atoms: _645  and  _646
REMARK  267  A    between atoms: _646  and  _647
REMARK  268  A    between atoms: _647  and  _648
REMARK  269  A    between atoms: _652  and  _654
REMARK  270  A    between atoms: _654  and  _655
REMARK  271  A    between atoms: _654  and  _657
REMARK  272  A    between atoms: _657  and  _658
REMARK  273  A    between atoms: _668  and  _670
REMARK  274  A    between atoms: _670  and  _671
REMARK  275  A    between atoms: _674  and  _676
REMARK  276  A    between atoms: _676  and  _677
REMARK  277  A    between atoms: _679  and  _681
REMARK  278  A    between atoms: _681  and  _682
REMARK  279  A    between atoms: _681  and  _684
REMARK  280  A    between atoms: _684  and  _685
REMARK  281  A    between atoms: _685  and  _686
REMARK  282  A    between atoms: _689  and  _691
REMARK  283  A    between atoms: _691  and  _692
REMARK  284  A    between atoms: _695  and  _697
REMARK  285  A    between atoms: _697  and  _698
REMARK  286  A    between atoms: _697  and  _700
REMARK  287  A    between atoms: _700  and  _701
REMARK  288  A    between atoms: _701  and  _702
REMARK  289  A    between atoms: _702  and  _703
REMARK  290  A    between atoms: _712  and  _714
REMARK  291  A    between atoms: _714  and  _715
REMARK  292  A    between atoms: _714  and  _717
REMARK  293  A    between atoms: _717  and  _718
REMARK  294  A    between atoms: _721  and  _723
REMARK  295  A    between atoms: _723  and  _724
REMARK  296  A    between atoms: _723  and  _726
REMARK  297  A    between atoms: _726  and  _727
REMARK  298  A    between atoms: _732  and  _733
REMARK  299  A    between atoms: _735  and  _737
REMARK  300  A    between atoms: _737  and  _738
REMARK  301  A    between atoms: _737  and  _740
REMARK  302  A    between atoms: _740  and  _741
REMARK  303  A    between atoms: _744  and  _746
REMARK  304  A    between atoms: _746  and  _747
REMARK  305  A    between atoms: _746  and  _749
REMARK  306  A    between atoms: _749  and  _750
REMARK  307  A    between atoms: _753  and  _755
REMARK  308  A    between atoms: _755  and  _756
REMARK  309  A    between atoms: _755  and  _758
REMARK  310  A    between atoms: _758  and  _759
REMARK  311  A    between atoms: _760  and  _762
REMARK  312  A    between atoms: _762  and  _763
REMARK  313  A    between atoms: _762  and  _765
REMARK  314  A    between atoms: _768  and  _770
REMARK  315  A    between atoms: _770  and  _771
REMARK  316  A    between atoms: _770  and  _773
REMARK  317  A    between atoms: _773  and  _774
REMARK  318  A    between atoms: _774  and  _775
REMARK  319  A    between atoms: _778  and  _780
REMARK  320  A    between atoms: _780  and  _781
REMARK  321  A    between atoms: _780  and  _783
REMARK  322  A    between atoms: _783  and  _784
REMARK  323  A    between atoms: _794  and  _796
REMARK  324  A    between atoms: _796  and  _797
REMARK  325  A    between atoms: _796  and  _799
REMARK  326  A    between atoms: _799  and  _800
REMARK  327  A    between atoms: _803  and  _805
REMARK  328  A    between atoms: _805  and  _806
REMARK  329  A    between atoms: _805  and  _808
REMARK  330  A    between atoms: _808  and  _809
REMARK  331  A    between atoms: _809  and  _810
REMARK  332  A    between atoms: _810  and  _811
REMARK  333  A    between atoms: _820  and  _822
REMARK  334  A    between atoms: _822  and  _823
REMARK  335  A    between atoms: _822  and  _825
REMARK  336  A    between atoms: _825  and  _826
REMARK  337  A    between atoms: _831  and  _832
REMARK                            x       y       z     vdW  Elec       q    Type
REMARK                         _______ _______ _______ _____ _____    ______ ____
ROOT
ATOM      1  O   HOH     1      57.722  33.998 -13.958  0.00  0.00    +0.000 OA
ENDROOT
TORSDOF 0
REMARK  Name = ../refined-set-2016/4pg9/4pg9_pocket.pdb
REMARK  337 active torsions:
REMARK  status: ('A' for Active; 'I' for Inactive)
REMARK    1  A    between atoms: _1  and  _3
REMARK    2  A    between atoms: _3  and  _4
REMARK    3  A    between atoms: _3  and  _6
REMARK    4  A    between atoms: _6  and  _7
REMARK    5  A    between atoms: _10  and  _12
REMARK    6  A    between atoms: _12  and  _13
REMARK    7  A    between atoms: _12  and  _15
REMARK    8  A    between atoms: _15  and  _16
REMARK    9  A    between atoms: _16  and  _17
REMARK   10  A    between atoms: _17  and  _18
REMARK   11  A    between atoms: _27  and  _29
REMARK   12  A    between atoms: _29  and  _30
REMARK   13  A    between atoms: _29  and  _32
REMARK   14  A    between atoms: _32  and  _33
REMARK   15  A    between atoms: _38  and  _39
REMARK   16  A    between atoms: _41  and  _43
REMARK   17  A    between atoms: _43  and  _44
REMARK   18  A    between atoms: _43  and  _46
REMARK   19  A    between atoms: _46  and  _47
REMARK   20  A    between atoms: _53  and  _55
REMARK   21  A    between atoms: _55  and  _56
REMARK   22  A    between atoms: _55  and  _58
REMARK   23  A    between atoms: _61  and  _63
REMARK   24  A    between atoms: _63  and  _64
REMARK   25  A    between atoms: _63  and  _66
REMARK   26  A    between atoms: _66  and  _67
REMARK   27  A    between atoms: _70  and  _72
REMARK   28  A    between atoms: _72  and  _73
REMARK   29  A    between atoms: _72  and  _75
REMARK   30  A    between atoms: _75  and  _76
REMARK   31  A    between atoms: _81  and  _82
REMARK   32  A    between atoms: _84  and  _86
REMARK   33  A    between atoms: _86  and  _87
REMARK   34  A    between atoms: _86  and  _89
REMARK   35  A    between atoms: _89  and  _90
REMARK   36  A    between atoms: _90  and  _91
REMARK   37  A    between atoms: _93  and  _95
REMARK   38  A    between atoms: _95  and  _96
REMARK   39  A    between atoms: _95  and  _98
REMARK   40  A    between atoms: _98  and  _99
REMARK   41  A    between atoms: _99  and  _100
REMARK   42  A    between atoms: _103  and  _105
REMARK   43  A    between atoms: _105  and  _106
REMARK   44  A    between atoms: _105  and  _108
REMARK   45  A    between atoms: _111  and  _113
REMARK   46  A    between atoms: _113  and  _114
REMARK   47  A    between atoms: _116  and  _118
REMARK   48  A    between atoms: _118  and  _119
REMARK   49  A    between atoms: _118  and  _121
REMARK   50  A    between atoms: _124  and  _126
REMARK   51  A    between atoms: _126  and  _127
REMARK   52  A    between atoms: _126  and  _129
REMARK   53  A    between atoms: _129  and  _130
REMARK   54  A    between atoms: _136  and  _138
REMARK   55  A    between atoms: _138  and  _139
REMARK   56  A    between atoms: _138  and  _141
REMARK   57  A    between atoms: _144  and  _146
REMARK   58  A    between atoms: _146  and  _147
REMARK   59  A    between atoms: _146  and  _149
REMARK   60  A    between atoms: _149  and  _150
REMARK   61  A    between atoms: _155  and  _156
REMARK   62  A    between atoms: _158  and  _160
REMARK   63  A    between atoms: _160  and  _161
REMARK   64  A    between atoms: _160  and  _163
REMARK   65  A    between atoms: _163  and  _164
REMARK   66  A    between atoms: _164  and  _165
REMARK   67  A    between atoms: _167  and  _169
REMARK   68  A    between atoms: _169  and  _170
REMARK   69  A    between atoms: _169  and  _172
REMARK   70  A    between atoms: _172  and  _173
REMARK   71  A    between atoms: _173  and  _174
REMARK   72  A    between atoms: _177  and  _179
REMARK   73  A    between atoms: _179  and  _180
REMARK   74  A    between atoms: _179  and  _182
REMARK   75  A    between atoms: _182  and  _183
REMARK   76  A    between atoms: _183  and  _184
REMARK   77  A    between atoms: _187  and  _189
REMARK   78  A    between atoms: _189  and  _190
REMARK   79  A    between atoms: _189  and  _192
REMARK   80  A    between atoms: _192  and  _193
REMARK   81  A    between atoms: _198  and  _199
REMARK   82  A    between atoms: _201  and  _203
REMARK   83  A    between atoms: _203  and  _204
REMARK   84  A    between atoms: _203  and  _206
REMARK   85  A    between atoms: _206  and  _207
REMARK   86  A    between atoms: _207  and  _208
REMARK   87  A    between atoms: _208  and  _209
REMARK   88  A    between atoms: _218  and  _220
REMARK   89  A    between atoms: _220  and  _221
REMARK   90  A    between atoms: _220  and  _223
REMARK   91  A    between atoms: _223  and  _224
REMARK   92  A    between atoms: _224  and  _225
REMARK   93  A    between atoms: _228  and  _230
REMARK   94  A    between atoms: _230  and  _231
REMARK   95  A    between atoms: _230  and  _233
REMARK   96  A    between atoms: _233  and  _234
REMARK   97  A    between atoms: _237  and  _239
REMARK   98  A    between atoms: _239  and  _240
REMARK   99  A    between atoms: _239  and  _242
REMARK  100  A    between atoms: _242  and  _243
REMARK  101  A    between atoms: _243  and  _244
REMARK  102  A    between atoms: _249  and  _251
REMARK  103  A    between atoms: _251  and  _252
REMARK  104  A    between atoms: _251  and  _254
REMARK  105  A    between atoms: _254  and  _255
REMARK  106  A    between atoms: _255  and  _256
REMARK  107  A    between atoms: _256  and  _257
REMARK  108  A    between atoms: _257  and  _258
REMARK  109  A    between atoms: _262  and  _264
REMARK  110  A    between atoms: _264  and  _265
REMARK  111  A    between atoms: _268  and  _270
REMARK  112  A    between atoms: _270  and  _271
REMARK  113  A    between atoms: _273  and  _275
REMARK  114  A    between atoms: _275  and  _276
REMARK  115  A    between atoms: _275  and  _278
REMARK  116  A    between atoms: _278  and  _279
REMARK  117  A    between atoms: _284  and  _286
REMARK  118  A    between atoms: _286  and  _287
REMARK  119  A    between atoms: _286  and  _289
REMARK  120  A    between atoms: _289  and  _290
REMARK  121  A    between atoms: _290  and  _291
REMARK  122  A    between atoms: _294  and  _296
REMARK  123  A    between atoms: _296  and  _297
REMARK  124  A    between atoms: _296  and  _299
REMARK  125  A    between atoms: _299  and  _300
REMARK  126  A    between atoms: _300  and  _301
REMARK  127  A    between atoms: _306  and  _308
REMARK  128  A    between atoms: _308  and  _309
REMARK  129  A    between atoms: _308  and  _311
REMARK  130  A    between atoms: _311  and  _312
REMARK  131  A    between atoms: _314  and  _316
REMARK  132  A    between atoms: _316  and  _317
REMARK  133  A    between atoms: _316  and  _319
REMARK  134  A    between atoms: _319  and  _320
REMARK  135  A    between atoms: _326  and  _328
REMARK  136  A    between atoms: _328  and  _329
REMARK  137  A    between atoms: _328  and  _331
REMARK  138  A    between atoms: _334  and  _336
REMARK  139  A    between atoms: _336  and  _337
REMARK  140  A    between atoms: _336  and  _339
REMARK  141  A    between atoms: _339  and  _340
REMARK  142  A    between atoms: _343  and  _345
REMARK  143  A    between atoms: _345  and  _346
REMARK  144  A    between atoms: _345  and  _348
REMARK  145  A    between atoms: _348  and  _349
REMARK  146  A    between atoms: _352  and  _354
REMARK  147  A    between atoms: _354  and  _355
REMARK  148  A    between atoms: _354  and  _357
REMARK  149  A    between atoms: _357  and  _358
REMARK  150  A    between atoms: _361  and  _363
REMARK  151  A    between atoms: _363  and  _364
REMARK  152  A    between atoms: _363  and  _366
REMARK  153  A    between atoms: _366  and  _367
REMARK  154  A    between atoms: _370  and  _372
REMARK  155  A    between atoms: _372  and  _373
REMARK  156  A    between atoms: _372  and  _375
REMARK  157  A    between atoms: _375  and  _376
REMARK  158  A    between atoms: _381  and  _382
REMARK  159  A    between atoms: _384  and  _386
REMARK  160  A    between atoms: _386  and  _387
REMARK  161  A    between atoms: _386  and  _389
REMARK  162  A    between atoms: _389  and  _390
REMARK  163  A    between atoms: _395  and  _396
REMARK  164  A    between atoms: _398  and  _400
REMARK  165  A    between atoms: _400  and  _401
REMARK  166  A    between atoms: _400  and  _403
REMARK  167  A    between atoms: _403  and  _404
REMARK  168  A    between atoms: _407  and  _409
REMARK  169  A    between atoms: _409  and  _410
REMARK  170  A    between atoms: _409  and  _412
REMARK  171  A    between atoms: _412  and  _413
REMARK  172  A    between atoms: _416  and  _418
REMARK  173  A    between atoms: _418  and  _419
REMARK  174  A    between atoms: _418  and  _421
REMARK  175  A    between atoms: _421  and  _422
REMARK  176  A    between atoms: _422  and  _423
REMARK  177  A    between atoms: _428  and  _430
REMARK  178  A    between atoms: _430  and  _431
REMARK  179  A    between atoms: _430  and  _433
REMARK  180  A    between atoms: _436  and  _438
REMARK  181  A    between atoms: _438  and  _439
REMARK  182  A    between atoms: _438  and  _441
REMARK  183  A    between atoms: _441  and  _442
REMARK  184  A    between atoms: _445  and  _447
REMARK  185  A    between atoms: _447  and  _448
REMARK  186  A    between atoms: _447  and  _450
REMARK  187  A    between atoms: _450  and  _451
REMARK  188  A    between atoms: _453  and  _455
REMARK  189  A    between atoms: _455  and  _456
REMARK  190  A    between atoms: _458  and  _460
REMARK  191  A    between atoms: _460  and  _461
REMARK  192  A    between atoms: _460  and  _463
REMARK  193  A    between atoms: _463  and  _464
REMARK  194  A    between atoms: _464  and  _759
REMARK  195  A    between atoms: _465  and  _467
REMARK  196  A    between atoms: _467  and  _468
REMARK  197  A    between atoms: _467  and  _470
REMARK  198  A    between atoms: _470  and  _471
REMARK  199  A    between atoms: _476  and  _477
REMARK  200  A    between atoms: _479  and  _481
REMARK  201  A    between atoms: _481  and  _482
REMARK  202  A    between atoms: _481  and  _484
REMARK  203  A    between atoms: _484  and  _485
REMARK  204  A    between atoms: _485  and  _486
REMARK  205  A    between atoms: _491  and  _493
REMARK  206  A    between atoms: _493  and  _494
REMARK  207  A    between atoms: _493  and  _496
REMARK  208  A    between atoms: _496  and  _497
REMARK  209  A    between atoms: _497  and  _498
REMARK  210  A    between atoms: _503  and  _505
REMARK  211  A    between atoms: _505  and  _506
REMARK  212  A    between atoms: _505  and  _508
REMARK  213  A    between atoms: _508  and  _509
REMARK  214  A    between atoms: _514  and  _515
REMARK  215  A    between atoms: _517  and  _519
REMARK  216  A    between atoms: _519  and  _520
REMARK  217  A    between atoms: _523  and  _525
REMARK  218  A    between atoms: _525  and  _526
REMARK  219  A    between atoms: _525  and  _528
REMARK  220  A    between atoms: _528  and  _529
REMARK  221  A    between atoms: _534  and  _535
REMARK  222  A    between atoms: _537  and  _539
REMARK  223  A    between atoms: _539  and  _540
REMARK  224  A    between atoms: _539  and  _542
REMARK  225  A    between atoms: _542  and  _543
REMARK  226  A    between atoms: _548  and  _549
REMARK  227  A    between atoms: _551  and  _553
REMARK  228  A    between atoms: _553  and  _554
REMARK  229  A    between atoms: _553  and  _556
REMARK  230  A    between atoms: _556  and  _557
REMARK  231  A    between atoms: _560  and  _562
REMARK  232  A    between atoms: _562  and  _563
REMARK  233  A    between atoms: _562  and  _565
REMARK  234  A    between atoms: _565  and  _566
REMARK  235  A    between atoms: _576  and  _578
REMARK  236  A    between atoms: _578  and  _579
REMARK  237  A    between atoms: _582  and  _584
REMARK  238  A    between atoms: _584  and  _585
REMARK  239  A    between atoms: _588  and  _590
REMARK  240  A    between atoms: _590  and  _591
REMARK  241  A    between atoms: _590  and  _593
REMARK  242  A    between atoms: _593  and  _594
REMARK  243  A    between atoms: _597  and  _599
REMARK  244  A    between atoms: _599  and  _600
REMARK  245  A    between atoms: _599  and  _602
REMARK  246  A    between atoms: _602  and  _603
REMARK  247  A    between atoms: _606  and  _608
REMARK  248  A    between atoms: _608  and  _609
REMARK  249  A    between atoms: _608  and  _611
REMARK  250  A    between atoms: _611  and  _612
REMARK  251  A    between atoms: _615  and  _617
REMARK  252  A    between atoms: _617  and  _618
REMARK  253  A    between atoms: _617  and  _620
REMARK  254  A    between atoms: _620  and  _621
REMARK  255  A    between atoms: _621  and  _622
REMARK  256  A    between atoms: _622  and  _623
REMARK  257  A    between atoms: _623  and  _624
REMARK  258  A    between atoms: _628  and  _630
REMARK  259  A    between atoms: _630  and  _631
REMARK  260  A    between atoms: _630  and  _633
REMARK  261  A    between atoms: _633  and  _634
REMARK  262  A    between atoms: _639  and  _641
REMARK  263  A    between atoms: _641  and  _642
REMARK  264  A    between atoms: _641  and  _644
REMARK  265  A    between atoms: _644  and  _645
REMARK  266  A    between atoms: _645  and  _646
REMARK  267  A    between atoms: _646  and  _647
REMARK  268  A    between atoms: _647  and  _648
REMARK  269  A    between atoms: _652  and  _654
REMARK  270  A    between atoms: _654  and  _655
REMARK  271  A    between atoms: _654  and  _657
REMARK  272  A    between atoms: _657  and  _658
REMARK  273  A    between atoms: _668  and  _670
REMARK  274  A    between atoms: _670  and  _671
REMARK  275  A    between atoms: _674  and  _676
REMARK  276  A    between atoms: _676  and  _677
REMARK  277  A    between atoms: _679  and  _681
REMARK  278  A    between atoms: _681  and  _682
REMARK  279  A    between atoms: _681  and  _684
REMARK  280  A    between atoms: _684  and  _685
REMARK  281  A    between atoms: _685  and  _686
REMARK  282  A    between atoms: _689  and  _691
REMARK  283  A    between atoms: _691  and  _692
REMARK  284  A    between atoms: _695  and  _697
REMARK  285  A    between atoms: _697  and  _698
REMARK  286  A    between atoms: _697  and  _700
REMARK  287  A    between atoms: _700  and  _701
REMARK  288  A    between atoms: _701  and  _702
REMARK  289  A    between atoms: _702  and  _703
REMARK  290  A    between atoms: _712  and  _714
REMARK  291  A    between atoms: _714  and  _715
REMARK  292  A    between atoms: _714  and  _717
REMARK  293  A    between atoms: _717  and  _718
REMARK  294  A    between atoms: _721  and  _723
REMARK  295  A    between atoms: _723  and  _724
REMARK  296  A    between atoms: _723  and  _726
REMARK  297  A    between atoms: _726  and  _727
REMARK  298  A    between atoms: _732  and  _733
REMARK  299  A    between atoms: _735  and  _737
REMARK  300  A    between atoms: _737  and  _738
REMARK  301  A    between atoms: _737  and  _740
REMARK  302  A    between atoms: _740  and  _741
REMARK  303  A    between atoms: _744  and  _746
REMARK  304  A    between atoms: _746  and  _747
REMARK  305  A    between atoms: _746  and  _749
REMARK  306  A    between atoms: _749  and  _750
REMARK  307  A    between atoms: _753  and  _755
REMARK  308  A    between atoms: _755  and  _756
REMARK  309  A    between atoms: _755  and  _758
REMARK  310  A    between atoms: _758  and  _759
REMARK  311  A    between atoms: _760  and  _762
REMARK  312  A    between atoms: _762  and  _763
REMARK  313  A    between atoms: _762  and  _765
REMARK  314  A    between atoms: _768  and  _770
REMARK  315  A    between atoms: _770  and  _771
REMARK  316  A    between atoms: _770  and  _773
REMARK  317  A    between atoms: _773  and  _774
REMARK  318  A    between atoms: _774  and  _775
REMARK  319  A    between atoms: _778  and  _780
REMARK  320  A    between atoms: _780  and  _781
REMARK  321  A    between atoms: _780  and  _783
REMARK  322  A    between atoms: _783  and  _784
REMARK  323  A    between atoms: _794  and  _796
REMARK  324  A    between atoms: _796  and  _797
REMARK  325  A    between atoms: _796  and  _799
REMARK  326  A    between atoms: _799  and  _800
REMARK  327  A    between atoms: _803  and  _805
REMARK  328  A    between atoms: _805  and  _806
REMARK  329  A    between atoms: _805  and  _808
REMARK  330  A    between atoms: _808  and  _809
REMARK  331  A    between atoms: _809  and  _810
REMARK  332  A    between atoms: _810  and  _811
REMARK  333  A    between atoms: _820  and  _822
REMARK  334  A    between atoms: _822  and  _823
REMARK  335  A    between atoms: _822  and  _825
REMARK  336  A    between atoms: _825  and  _826
REMARK  337  A    between atoms: _831  and  _832
REMARK                            x       y       z     vdW  Elec       q    Type
REMARK                         _______ _______ _______ _____ _____    ______ ____
ROOT
ATOM      1  O   HOH     1      52.002  23.073  -4.067  0.00  0.00    +0.000 OA
ENDROOT
TORSDOF 0
REMARK  Name = ../refined-set-2016/4pg9/4pg9_pocket.pdb
REMARK  337 active torsions:
REMARK  status: ('A' for Active; 'I' for Inactive)
REMARK    1  A    between atoms: _1  and  _3
REMARK    2  A    between atoms: _3  and  _4
REMARK    3  A    between atoms: _3  and  _6
REMARK    4  A    between atoms: _6  and  _7
REMARK    5  A    between atoms: _10  and  _12
REMARK    6  A    between atoms: _12  and  _13
REMARK    7  A    between atoms: _12  and  _15
REMARK    8  A    between atoms: _15  and  _16
REMARK    9  A    between atoms: _16  and  _17
REMARK   10  A    between atoms: _17  and  _18
REMARK   11  A    between atoms: _27  and  _29
REMARK   12  A    between atoms: _29  and  _30
REMARK   13  A    between atoms: _29  and  _32
REMARK   14  A    between atoms: _32  and  _33
REMARK   15  A    between atoms: _38  and  _39
REMARK   16  A    between atoms: _41  and  _43
REMARK   17  A    between atoms: _43  and  _44
REMARK   18  A    between atoms: _43  and  _46
REMARK   19  A    between atoms: _46  and  _47
REMARK   20  A    between atoms: _53  and  _55
REMARK   21  A    between atoms: _55  and  _56
REMARK   22  A    between atoms: _55  and  _58
REMARK   23  A    between atoms: _61  and  _63
REMARK   24  A    between atoms: _63  and  _64
REMARK   25  A    between atoms: _63  and  _66
REMARK   26  A    between atoms: _66  and  _67
REMARK   27  A    between atoms: _70  and  _72
REMARK   28  A    between atoms: _72  and  _73
REMARK   29  A    between atoms: _72  and  _75
REMARK   30  A    between atoms: _75  and  _76
REMARK   31  A    between atoms: _81  and  _82
REMARK   32  A    between atoms: _84  and  _86
REMARK   33  A    between atoms: _86  and  _87
REMARK   34  A    between atoms: _86  and  _89
REMARK   35  A    between atoms: _89  and  _90
REMARK   36  A    between atoms: _90  and  _91
REMARK   37  A    between atoms: _93  and  _95
REMARK   38  A    between atoms: _95  and  _96
REMARK   39  A    between atoms: _95  and  _98
REMARK   40  A    between atoms: _98  and  _99
REMARK   41  A    between atoms: _99  and  _100
REMARK   42  A    between atoms: _103  and  _105
REMARK   43  A    between atoms: _105  and  _106
REMARK   44  A    between atoms: _105  and  _108
REMARK   45  A    between atoms: _111  and  _113
REMARK   46  A    between atoms: _113  and  _114
REMARK   47  A    between atoms: _116  and  _118
REMARK   48  A    between atoms: _118  and  _119
REMARK   49  A    between atoms: _118  and  _121
REMARK   50  A    between atoms: _124  and  _126
REMARK   51  A    between atoms: _126  and  _127
REMARK   52  A    between atoms: _126  and  _129
REMARK   53  A    between atoms: _129  and  _130
REMARK   54  A    between atoms: _136  and  _138
REMARK   55  A    between atoms: _138  and  _139
REMARK   56  A    between atoms: _138  and  _141
REMARK   57  A    between atoms: _144  and  _146
REMARK   58  A    between atoms: _146  and  _147
REMARK   59  A    between atoms: _146  and  _149
REMARK   60  A    between atoms: _149  and  _150
REMARK   61  A    between atoms: _155  and  _156
REMARK   62  A    between atoms: _158  and  _160
REMARK   63  A    between atoms: _160  and  _161
REMARK   64  A    between atoms: _160  and  _163
REMARK   65  A    between atoms: _163  and  _164
REMARK   66  A    between atoms: _164  and  _165
REMARK   67  A    between atoms: _167  and  _169
REMARK   68  A    between atoms: _169  and  _170
REMARK   69  A    between atoms: _169  and  _172
REMARK   70  A    between atoms: _172  and  _173
REMARK   71  A    between atoms: _173  and  _174
REMARK   72  A    between atoms: _177  and  _179
REMARK   73  A    between atoms: _179  and  _180
REMARK   74  A    between atoms: _179  and  _182
REMARK   75  A    between atoms: _182  and  _183
REMARK   76  A    between atoms: _183  and  _184
REMARK   77  A    between atoms: _187  and  _189
REMARK   78  A    between atoms: _189  and  _190
REMARK   79  A    between atoms: _189  and  _192
REMARK   80  A    between atoms: _192  and  _193
REMARK   81  A    between atoms: _198  and  _199
REMARK   82  A    between atoms: _201  and  _203
REMARK   83  A    between atoms: _203  and  _204
REMARK   84  A    between atoms: _203  and  _206
REMARK   85  A    between atoms: _206  and  _207
REMARK   86  A    between atoms: _207  and  _208
REMARK   87  A    between atoms: _208  and  _209
REMARK   88  A    between atoms: _218  and  _220
REMARK   89  A    between atoms: _220  and  _221
REMARK   90  A    between atoms: _220  and  _223
REMARK   91  A    between atoms: _223  and  _224
REMARK   92  A    between atoms: _224  and  _225
REMARK   93  A    between atoms: _228  and  _230
REMARK   94  A    between atoms: _230  and  _231
REMARK   95  A    between atoms: _230  and  _233
REMARK   96  A    between atoms: _233  and  _234
REMARK   97  A    between atoms: _237  and  _239
REMARK   98  A    between atoms: _239  and  _240
REMARK   99  A    between atoms: _239  and  _242
REMARK  100  A    between atoms: _242  and  _243
REMARK  101  A    between atoms: _243  and  _244
REMARK  102  A    between atoms: _249  and  _251
REMARK  103  A    between atoms: _251  and  _252
REMARK  104  A    between atoms: _251  and  _254
REMARK  105  A    between atoms: _254  and  _255
REMARK  106  A    between atoms: _255  and  _256
REMARK  107  A    between atoms: _256  and  _257
REMARK  108  A    between atoms: _257  and  _258
REMARK  109  A    between atoms: _262  and  _264
REMARK  110  A    between atoms: _264  and  _265
REMARK  111  A    between atoms: _268  and  _270
REMARK  112  A    between atoms: _270  and  _271
REMARK  113  A    between atoms: _273  and  _275
REMARK  114  A    between atoms: _275  and  _276
REMARK  115  A    between atoms: _275  and  _278
REMARK  116  A    between atoms: _278  and  _279
REMARK  117  A    between atoms: _284  and  _286
REMARK  118  A    between atoms: _286  and  _287
REMARK  119  A    between atoms: _286  and  _289
REMARK  120  A    between atoms: _289  and  _290
REMARK  121  A    between atoms: _290  and  _291
REMARK  122  A    between atoms: _294  and  _296
REMARK  123  A    between atoms: _296  and  _297
REMARK  124  A    between atoms: _296  and  _299
REMARK  125  A    between atoms: _299  and  _300
REMARK  126  A    between atoms: _300  and  _301
REMARK  127  A    between atoms: _306  and  _308
REMARK  128  A    between atoms: _308  and  _309
REMARK  129  A    between atoms: _308  and  _311
REMARK  130  A    between atoms: _311  and  _312
REMARK  131  A    between atoms: _314  and  _316
REMARK  132  A    between atoms: _316  and  _317
REMARK  133  A    between atoms: _316  and  _319
REMARK  134  A    between atoms: _319  and  _320
REMARK  135  A    between atoms: _326  and  _328
REMARK  136  A    between atoms: _328  and  _329
REMARK  137  A    between atoms: _328  and  _331
REMARK  138  A    between atoms: _334  and  _336
REMARK  139  A    between atoms: _336  and  _337
REMARK  140  A    between atoms: _336  and  _339
REMARK  141  A    between atoms: _339  and  _340
REMARK  142  A    between atoms: _343  and  _345
REMARK  143  A    between atoms: _345  and  _346
REMARK  144  A    between atoms: _345  and  _348
REMARK  145  A    between atoms: _348  and  _349
REMARK  146  A    between atoms: _352  and  _354
REMARK  147  A    between atoms: _354  and  _355
REMARK  148  A    between atoms: _354  and  _357
REMARK  149  A    between atoms: _357  and  _358
REMARK  150  A    between atoms: _361  and  _363
REMARK  151  A    between atoms: _363  and  _364
REMARK  152  A    between atoms: _363  and  _366
REMARK  153  A    between atoms: _366  and  _367
REMARK  154  A    between atoms: _370  and  _372
REMARK  155  A    between atoms: _372  and  _373
REMARK  156  A    between atoms: _372  and  _375
REMARK  157  A    between atoms: _375  and  _376
REMARK  158  A    between atoms: _381  and  _382
REMARK  159  A    between atoms: _384  and  _386
REMARK  160  A    between atoms: _386  and  _387
REMARK  161  A    between atoms: _386  and  _389
REMARK  162  A    between atoms: _389  and  _390
REMARK  163  A    between atoms: _395  and  _396
REMARK  164  A    between atoms: _398  and  _400
REMARK  165  A    between atoms: _400  and  _401
REMARK  166  A    between atoms: _400  and  _403
REMARK  167  A    between atoms: _403  and  _404
REMARK  168  A    between atoms: _407  and  _409
REMARK  169  A    between atoms: _409  and  _410
REMARK  170  A    between atoms: _409  and  _412
REMARK  171  A    between atoms: _412  and  _413
REMARK  172  A    between atoms: _416  and  _418
REMARK  173  A    between atoms: _418  and  _419
REMARK  174  A    between atoms: _418  and  _421
REMARK  175  A    between atoms: _421  and  _422
REMARK  176  A    between atoms: _422  and  _423
REMARK  177  A    between atoms: _428  and  _430
REMARK  178  A    between atoms: _430  and  _431
REMARK  179  A    between atoms: _430  and  _433
REMARK  180  A    between atoms: _436  and  _438
REMARK  181  A    between atoms: _438  and  _439
REMARK  182  A    between atoms: _438  and  _441
REMARK  183  A    between atoms: _441  and  _442
REMARK  184  A    between atoms: _445  and  _447
REMARK  185  A    between atoms: _447  and  _448
REMARK  186  A    between atoms: _447  and  _450
REMARK  187  A    between atoms: _450  and  _451
REMARK  188  A    between atoms: _453  and  _455
REMARK  189  A    between atoms: _455  and  _456
REMARK  190  A    between atoms: _458  and  _460
REMARK  191  A    between atoms: _460  and  _461
REMARK  192  A    between atoms: _460  and  _463
REMARK  193  A    between atoms: _463  and  _464
REMARK  194  A    between atoms: _464  and  _759
REMARK  195  A    between atoms: _465  and  _467
REMARK  196  A    between atoms: _467  and  _468
REMARK  197  A    between atoms: _467  and  _470
REMARK  198  A    between atoms: _470  and  _471
REMARK  199  A    between atoms: _476  and  _477
REMARK  200  A    between atoms: _479  and  _481
REMARK  201  A    between atoms: _481  and  _482
REMARK  202  A    between atoms: _481  and  _484
REMARK  203  A    between atoms: _484  and  _485
REMARK  204  A    between atoms: _485  and  _486
REMARK  205  A    between atoms: _491  and  _493
REMARK  206  A    between atoms: _493  and  _494
REMARK  207  A    between atoms: _493  and  _496
REMARK  208  A    between atoms: _496  and  _497
REMARK  209  A    between atoms: _497  and  _498
REMARK  210  A    between atoms: _503  and  _505
REMARK  211  A    between atoms: _505  and  _506
REMARK  212  A    between atoms: _505  and  _508
REMARK  213  A    between atoms: _508  and  _509
REMARK  214  A    between atoms: _514  and  _515
REMARK  215  A    between atoms: _517  and  _519
REMARK  216  A    between atoms: _519  and  _520
REMARK  217  A    between atoms: _523  and  _525
REMARK  218  A    between atoms: _525  and  _526
REMARK  219  A    between atoms: _525  and  _528
REMARK  220  A    between atoms: _528  and  _529
REMARK  221  A    between atoms: _534  and  _535
REMARK  222  A    between atoms: _537  and  _539
REMARK  223  A    between atoms: _539  and  _540
REMARK  224  A    between atoms: _539  and  _542
REMARK  225  A    between atoms: _542  and  _543
REMARK  226  A    between atoms: _548  and  _549
REMARK  227  A    between atoms: _551  and  _553
REMARK  228  A    between atoms: _553  and  _554
REMARK  229  A    between atoms: _553  and  _556
REMARK  230  A    between atoms: _556  and  _557
REMARK  231  A    between atoms: _560  and  _562
REMARK  232  A    between atoms: _562  and  _563
REMARK  233  A    between atoms: _562  and  _565
REMARK  234  A    between atoms: _565  and  _566
REMARK  235  A    between atoms: _576  and  _578
REMARK  236  A    between atoms: _578  and  _579
REMARK  237  A    between atoms: _582  and  _584
REMARK  238  A    between atoms: _584  and  _585
REMARK  239  A    between atoms: _588  and  _590
REMARK  240  A    between atoms: _590  and  _591
REMARK  241  A    between atoms: _590  and  _593
REMARK  242  A    between atoms: _593  and  _594
REMARK  243  A    between atoms: _597  and  _599
REMARK  244  A    between atoms: _599  and  _600
REMARK  245  A    between atoms: _599  and  _602
REMARK  246  A    between atoms: _602  and  _603
REMARK  247  A    between atoms: _606  and  _608
REMARK  248  A    between atoms: _608  and  _609
REMARK  249  A    between atoms: _608  and  _611
REMARK  250  A    between atoms: _611  and  _612
REMARK  251  A    between atoms: _615  and  _617
REMARK  252  A    between atoms: _617  and  _618
REMARK  253  A    between atoms: _617  and  _620
REMARK  254  A    between atoms: _620  and  _621
REMARK  255  A    between atoms: _621  and  _622
REMARK  256  A    between atoms: _622  and  _623
REMARK  257  A    between atoms: _623  and  _624
REMARK  258  A    between atoms: _628  and  _630
REMARK  259  A    between atoms: _630  and  _631
REMARK  260  A    between atoms: _630  and  _633
REMARK  261  A    between atoms: _633  and  _634
REMARK  262  A    between atoms: _639  and  _641
REMARK  263  A    between atoms: _641  and  _642
REMARK  264  A    between atoms: _641  and  _644
REMARK  265  A    between atoms: _644  and  _645
REMARK  266  A    between atoms: _645  and  _646
REMARK  267  A    between atoms: _646  and  _647
REMARK  268  A    between atoms: _647  and  _648
REMARK  269  A    between atoms: _652  and  _654
REMARK  270  A    between atoms: _654  and  _655
REMARK  271  A    between atoms: _654  and  _657
REMARK  272  A    between atoms: _657  and  _658
REMARK  273  A    between atoms: _668  and  _670
REMARK  274  A    between atoms: _670  and  _671
REMARK  275  A    between atoms: _674  and  _676
REMARK  276  A    between atoms: _676  and  _677
REMARK  277  A    between atoms: _679  and  _681
REMARK  278  A    between atoms: _681  and  _682
REMARK  279  A    between atoms: _681  and  _684
REMARK  280  A    between atoms: _684  and  _685
REMARK  281  A    between atoms: _685  and  _686
REMARK  282  A    between atoms: _689  and  _691
REMARK  283  A    between atoms: _691  and  _692
REMARK  284  A    between atoms: _695  and  _697
REMARK  285  A    between atoms: _697  and  _698
REMARK  286  A    between atoms: _697  and  _700
REMARK  287  A    between atoms: _700  and  _701
REMARK  288  A    between atoms: _701  and  _702
REMARK  289  A    between atoms: _702  and  _703
REMARK  290  A    between atoms: _712  and  _714
REMARK  291  A    between atoms: _714  and  _715
REMARK  292  A    between atoms: _714  and  _717
REMARK  293  A    between atoms: _717  and  _718
REMARK  294  A    between atoms: _721  and  _723
REMARK  295  A    between atoms: _723  and  _724
REMARK  296  A    between atoms: _723  and  _726
REMARK  297  A    between atoms: _726  and  _727
REMARK  298  A    between atoms: _732  and  _733
REMARK  299  A    between atoms: _735  and  _737
REMARK  300  A    between atoms: _737  and  _738
REMARK  301  A    between atoms: _737  and  _740
REMARK  302  A    between atoms: _740  and  _741
REMARK  303  A    between atoms: _744  and  _746
REMARK  304  A    between atoms: _746  and  _747
REMARK  305  A    between atoms: _746  and  _749
REMARK  306  A    between atoms: _749  and  _750
REMARK  307  A    between atoms: _753  and  _755
REMARK  308  A    between atoms: _755  and  _756
REMARK  309  A    between atoms: _755  and  _758
REMARK  310  A    between atoms: _758  and  _759
REMARK  311  A    between atoms: _760  and  _762
REMARK  312  A    between atoms: _762  and  _763
REMARK  313  A    between atoms: _762  and  _765
REMARK  314  A    between atoms: _768  and  _770
REMARK  315  A    between atoms: _770  and  _771
REMARK  316  A    between atoms: _770  and  _773
REMARK  317  A    between atoms: _773  and  _774
REMARK  318  A    between atoms: _774  and  _775
REMARK  319  A    between atoms: _778  and  _780
REMARK  320  A    between atoms: _780  and  _781
REMARK  321  A    between atoms: _780  and  _783
REMARK  322  A    between atoms: _783  and  _784
REMARK  323  A    between atoms: _794  and  _796
REMARK  324  A    between atoms: _796  and  _797
REMARK  325  A    between atoms: _796  and  _799
REMARK  326  A    between atoms: _799  and  _800
REMARK  327  A    between atoms: _803  and  _805
REMARK  328  A    between atoms: _805  and  _806
REMARK  329  A    between atoms: _805  and  _808
REMARK  330  A    between atoms: _808  and  _809
REMARK  331  A    between atoms: _809  and  _810
REMARK  332  A    between atoms: _810  and  _811
REMARK  333  A    between atoms: _820  and  _822
REMARK  334  A    between atoms: _822  and  _823
REMARK  335  A    between atoms: _822  and  _825
REMARK  336  A    between atoms: _825  and  _826
REMARK  337  A    between atoms: _831  and  _832
REMARK                            x       y       z     vdW  Elec       q    Type
REMARK                         _______ _______ _______ _____ _____    ______ ____
ROOT
ATOM      1  O   HOH     1      55.429  21.592   6.247  0.00  0.00    +0.000 OA
ENDROOT
TORSDOF 0
REMARK  Name = ../refined-set-2016/4pg9/4pg9_pocket.pdb
REMARK  337 active torsions:
REMARK  status: ('A' for Active; 'I' for Inactive)
REMARK    1  A    between atoms: _1  and  _3
REMARK    2  A    between atoms: _3  and  _4
REMARK    3  A    between atoms: _3  and  _6
REMARK    4  A    between atoms: _6  and  _7
REMARK    5  A    between atoms: _10  and  _12
REMARK    6  A    between atoms: _12  and  _13
REMARK    7  A    between atoms: _12  and  _15
REMARK    8  A    between atoms: _15  and  _16
REMARK    9  A    between atoms: _16  and  _17
REMARK   10  A    between atoms: _17  and  _18
REMARK   11  A    between atoms: _27  and  _29
REMARK   12  A    between atoms: _29  and  _30
REMARK   13  A    between atoms: _29  and  _32
REMARK   14  A    between atoms: _32  and  _33
REMARK   15  A    between atoms: _38  and  _39
REMARK   16  A    between atoms: _41  and  _43
REMARK   17  A    between atoms: _43  and  _44
REMARK   18  A    between atoms: _43  and  _46
REMARK   19  A    between atoms: _46  and  _47
REMARK   20  A    between atoms: _53  and  _55
REMARK   21  A    between atoms: _55  and  _56
REMARK   22  A    between atoms: _55  and  _58
REMARK   23  A    between atoms: _61  and  _63
REMARK   24  A    between atoms: _63  and  _64
REMARK   25  A    between atoms: _63  and  _66
REMARK   26  A    between atoms: _66  and  _67
REMARK   27  A    between atoms: _70  and  _72
REMARK   28  A    between atoms: _72  and  _73
REMARK   29  A    between atoms: _72  and  _75
REMARK   30  A    between atoms: _75  and  _76
REMARK   31  A    between atoms: _81  and  _82
REMARK   32  A    between atoms: _84  and  _86
REMARK   33  A    between atoms: _86  and  _87
REMARK   34  A    between atoms: _86  and  _89
REMARK   35  A    between atoms: _89  and  _90
REMARK   36  A    between atoms: _90  and  _91
REMARK   37  A    between atoms: _93  and  _95
REMARK   38  A    between atoms: _95  and  _96
REMARK   39  A    between atoms: _95  and  _98
REMARK   40  A    between atoms: _98  and  _99
REMARK   41  A    between atoms: _99  and  _100
REMARK   42  A    between atoms: _103  and  _105
REMARK   43  A    between atoms: _105  and  _106
REMARK   44  A    between atoms: _105  and  _108
REMARK   45  A    between atoms: _111  and  _113
REMARK   46  A    between atoms: _113  and  _114
REMARK   47  A    between atoms: _116  and  _118
REMARK   48  A    between atoms: _118  and  _119
REMARK   49  A    between atoms: _118  and  _121
REMARK   50  A    between atoms: _124  and  _126
REMARK   51  A    between atoms: _126  and  _127
REMARK   52  A    between atoms: _126  and  _129
REMARK   53  A    between atoms: _129  and  _130
REMARK   54  A    between atoms: _136  and  _138
REMARK   55  A    between atoms: _138  and  _139
REMARK   56  A    between atoms: _138  and  _141
REMARK   57  A    between atoms: _144  and  _146
REMARK   58  A    between atoms: _146  and  _147
REMARK   59  A    between atoms: _146  and  _149
REMARK   60  A    between atoms: _149  and  _150
REMARK   61  A    between atoms: _155  and  _156
REMARK   62  A    between atoms: _158  and  _160
REMARK   63  A    between atoms: _160  and  _161
REMARK   64  A    between atoms: _160  and  _163
REMARK   65  A    between atoms: _163  and  _164
REMARK   66  A    between atoms: _164  and  _165
REMARK   67  A    between atoms: _167  and  _169
REMARK   68  A    between atoms: _169  and  _170
REMARK   69  A    between atoms: _169  and  _172
REMARK   70  A    between atoms: _172  and  _173
REMARK   71  A    between atoms: _173  and  _174
REMARK   72  A    between atoms: _177  and  _179
REMARK   73  A    between atoms: _179  and  _180
REMARK   74  A    between atoms: _179  and  _182
REMARK   75  A    between atoms: _182  and  _183
REMARK   76  A    between atoms: _183  and  _184
REMARK   77  A    between atoms: _187  and  _189
REMARK   78  A    between atoms: _189  and  _190
REMARK   79  A    between atoms: _189  and  _192
REMARK   80  A    between atoms: _192  and  _193
REMARK   81  A    between atoms: _198  and  _199
REMARK   82  A    between atoms: _201  and  _203
REMARK   83  A    between atoms: _203  and  _204
REMARK   84  A    between atoms: _203  and  _206
REMARK   85  A    between atoms: _206  and  _207
REMARK   86  A    between atoms: _207  and  _208
REMARK   87  A    between atoms: _208  and  _209
REMARK   88  A    between atoms: _218  and  _220
REMARK   89  A    between atoms: _220  and  _221
REMARK   90  A    between atoms: _220  and  _223
REMARK   91  A    between atoms: _223  and  _224
REMARK   92  A    between atoms: _224  and  _225
REMARK   93  A    between atoms: _228  and  _230
REMARK   94  A    between atoms: _230  and  _231
REMARK   95  A    between atoms: _230  and  _233
REMARK   96  A    between atoms: _233  and  _234
REMARK   97  A    between atoms: _237  and  _239
REMARK   98  A    between atoms: _239  and  _240
REMARK   99  A    between atoms: _239  and  _242
REMARK  100  A    between atoms: _242  and  _243
REMARK  101  A    between atoms: _243  and  _244
REMARK  102  A    between atoms: _249  and  _251
REMARK  103  A    between atoms: _251  and  _252
REMARK  104  A    between atoms: _251  and  _254
REMARK  105  A    between atoms: _254  and  _255
REMARK  106  A    between atoms: _255  and  _256
REMARK  107  A    between atoms: _256  and  _257
REMARK  108  A    between atoms: _257  and  _258
REMARK  109  A    between atoms: _262  and  _264
REMARK  110  A    between atoms: _264  and  _265
REMARK  111  A    between atoms: _268  and  _270
REMARK  112  A    between atoms: _270  and  _271
REMARK  113  A    between atoms: _273  and  _275
REMARK  114  A    between atoms: _275  and  _276
REMARK  115  A    between atoms: _275  and  _278
REMARK  116  A    between atoms: _278  and  _279
REMARK  117  A    between atoms: _284  and  _286
REMARK  118  A    between atoms: _286  and  _287
REMARK  119  A    between atoms: _286  and  _289
REMARK  120  A    between atoms: _289  and  _290
REMARK  121  A    between atoms: _290  and  _291
REMARK  122  A    between atoms: _294  and  _296
REMARK  123  A    between atoms: _296  and  _297
REMARK  124  A    between atoms: _296  and  _299
REMARK  125  A    between atoms: _299  and  _300
REMARK  126  A    between atoms: _300  and  _301
REMARK  127  A    between atoms: _306  and  _308
REMARK  128  A    between atoms: _308  and  _309
REMARK  129  A    between atoms: _308  and  _311
REMARK  130  A    between atoms: _311  and  _312
REMARK  131  A    between atoms: _314  and  _316
REMARK  132  A    between atoms: _316  and  _317
REMARK  133  A    between atoms: _316  and  _319
REMARK  134  A    between atoms: _319  and  _320
REMARK  135  A    between atoms: _326  and  _328
REMARK  136  A    between atoms: _328  and  _329
REMARK  137  A    between atoms: _328  and  _331
REMARK  138  A    between atoms: _334  and  _336
REMARK  139  A    between atoms: _336  and  _337
REMARK  140  A    between atoms: _336  and  _339
REMARK  141  A    between atoms: _339  and  _340
REMARK  142  A    between atoms: _343  and  _345
REMARK  143  A    between atoms: _345  and  _346
REMARK  144  A    between atoms: _345  and  _348
REMARK  145  A    between atoms: _348  and  _349
REMARK  146  A    between atoms: _352  and  _354
REMARK  147  A    between atoms: _354  and  _355
REMARK  148  A    between atoms: _354  and  _357
REMARK  149  A    between atoms: _357  and  _358
REMARK  150  A    between atoms: _361  and  _363
REMARK  151  A    between atoms: _363  and  _364
REMARK  152  A    between atoms: _363  and  _366
REMARK  153  A    between atoms: _366  and  _367
REMARK  154  A    between atoms: _370  and  _372
REMARK  155  A    between atoms: _372  and  _373
REMARK  156  A    between atoms: _372  and  _375
REMARK  157  A    between atoms: _375  and  _376
REMARK  158  A    between atoms: _381  and  _382
REMARK  159  A    between atoms: _384  and  _386
REMARK  160  A    between atoms: _386  and  _387
REMARK  161  A    between atoms: _386  and  _389
REMARK  162  A    between atoms: _389  and  _390
REMARK  163  A    between atoms: _395  and  _396
REMARK  164  A    between atoms: _398  and  _400
REMARK  165  A    between atoms: _400  and  _401
REMARK  166  A    between atoms: _400  and  _403
REMARK  167  A    between atoms: _403  and  _404
REMARK  168  A    between atoms: _407  and  _409
REMARK  169  A    between atoms: _409  and  _410
REMARK  170  A    between atoms: _409  and  _412
REMARK  171  A    between atoms: _412  and  _413
REMARK  172  A    between atoms: _416  and  _418
REMARK  173  A    between atoms: _418  and  _419
REMARK  174  A    between atoms: _418  and  _421
REMARK  175  A    between atoms: _421  and  _422
REMARK  176  A    between atoms: _422  and  _423
REMARK  177  A    between atoms: _428  and  _430
REMARK  178  A    between atoms: _430  and  _431
REMARK  179  A    between atoms: _430  and  _433
REMARK  180  A    between atoms: _436  and  _438
REMARK  181  A    between atoms: _438  and  _439
REMARK  182  A    between atoms: _438  and  _441
REMARK  183  A    between atoms: _441  and  _442
REMARK  184  A    between atoms: _445  and  _447
REMARK  185  A    between atoms: _447  and  _448
REMARK  186  A    between atoms: _447  and  _450
REMARK  187  A    between atoms: _450  and  _451
REMARK  188  A    between atoms: _453  and  _455
REMARK  189  A    between atoms: _455  and  _456
REMARK  190  A    between atoms: _458  and  _460
REMARK  191  A    between atoms: _460  and  _461
REMARK  192  A    between atoms: _460  and  _463
REMARK  193  A    between atoms: _463  and  _464
REMARK  194  A    between atoms: _464  and  _759
REMARK  195  A    between atoms: _465  and  _467
REMARK  196  A    between atoms: _467  and  _468
REMARK  197  A    between atoms: _467  and  _470
REMARK  198  A    between atoms: _470  and  _471
REMARK  199  A    between atoms: _476  and  _477
REMARK  200  A    between atoms: _479  and  _481
REMARK  201  A    between atoms: _481  and  _482
REMARK  202  A    between atoms: _481  and  _484
REMARK  203  A    between atoms: _484  and  _485
REMARK  204  A    between atoms: _485  and  _486
REMARK  205  A    between atoms: _491  and  _493
REMARK  206  A    between atoms: _493  and  _494
REMARK  207  A    between atoms: _493  and  _496
REMARK  208  A    between atoms: _496  and  _497
REMARK  209  A    between atoms: _497  and  _498
REMARK  210  A    between atoms: _503  and  _505
REMARK  211  A    between atoms: _505  and  _506
REMARK  212  A    between atoms: _505  and  _508
REMARK  213  A    between atoms: _508  and  _509
REMARK  214  A    between atoms: _514  and  _515
REMARK  215  A    between atoms: _517  and  _519
REMARK  216  A    between atoms: _519  and  _520
REMARK  217  A    between atoms: _523  and  _525
REMARK  218  A    between atoms: _525  and  _526
REMARK  219  A    between atoms: _525  and  _528
REMARK  220  A    between atoms: _528  and  _529
REMARK  221  A    between atoms: _534  and  _535
REMARK  222  A    between atoms: _537  and  _539
REMARK  223  A    between atoms: _539  and  _540
REMARK  224  A    between atoms: _539  and  _542
REMARK  225  A    between atoms: _542  and  _543
REMARK  226  A    between atoms: _548  and  _549
REMARK  227  A    between atoms: _551  and  _553
REMARK  228  A    between atoms: _553  and  _554
REMARK  229  A    between atoms: _553  and  _556
REMARK  230  A    between atoms: _556  and  _557
REMARK  231  A    between atoms: _560  and  _562
REMARK  232  A    between atoms: _562  and  _563
REMARK  233  A    between atoms: _562  and  _565
REMARK  234  A    between atoms: _565  and  _566
REMARK  235  A    between atoms: _576  and  _578
REMARK  236  A    between atoms: _578  and  _579
REMARK  237  A    between atoms: _582  and  _584
REMARK  238  A    between atoms: _584  and  _585
REMARK  239  A    between atoms: _588  and  _590
REMARK  240  A    between atoms: _590  and  _591
REMARK  241  A    between atoms: _590  and  _593
REMARK  242  A    between atoms: _593  and  _594
REMARK  243  A    between atoms: _597  and  _599
REMARK  244  A    between atoms: _599  and  _600
REMARK  245  A    between atoms: _599  and  _602
REMARK  246  A    between atoms: _602  and  _603
REMARK  247  A    between atoms: _606  and  _608
REMARK  248  A    between atoms: _608  and  _609
REMARK  249  A    between atoms: _608  and  _611
REMARK  250  A    between atoms: _611  and  _612
REMARK  251  A    between atoms: _615  and  _617
REMARK  252  A    between atoms: _617  and  _618
REMARK  253  A    between atoms: _617  and  _620
REMARK  254  A    between atoms: _620  and  _621
REMARK  255  A    between atoms: _621  and  _622
REMARK  256  A    between atoms: _622  and  _623
REMARK  257  A    between atoms: _623  and  _624
REMARK  258  A    between atoms: _628  and  _630
REMARK  259  A    between atoms: _630  and  _631
REMARK  260  A    between atoms: _630  and  _633
REMARK  261  A    between atoms: _633  and  _634
REMARK  262  A    between atoms: _639  and  _641
REMARK  263  A    between atoms: _641  and  _642
REMARK  264  A    between atoms: _641  and  _644
REMARK  265  A    between atoms: _644  and  _645
REMARK  266  A    between atoms: _645  and  _646
REMARK  267  A    between atoms: _646  and  _647
REMARK  268  A    between atoms: _647  and  _648
REMARK  269  A    between atoms: _652  and  _654
REMARK  270  A    between atoms: _654  and  _655
REMARK  271  A    between atoms: _654  and  _657
REMARK  272  A    between atoms: _657  and  _658
REMARK  273  A    between atoms: _668  and  _670
REMARK  274  A    between atoms: _670  and  _671
REMARK  275  A    between atoms: _674  and  _676
REMARK  276  A    between atoms: _676  and  _677
REMARK  277  A    between atoms: _679  and  _681
REMARK  278  A    between atoms: _681  and  _682
REMARK  279  A    between atoms: _681  and  _684
REMARK  280  A    between atoms: _684  and  _685
REMARK  281  A    between atoms: _685  and  _686
REMARK  282  A    between atoms: _689  and  _691
REMARK  283  A    between atoms: _691  and  _692
REMARK  284  A    between atoms: _695  and  _697
REMARK  285  A    between atoms: _697  and  _698
REMARK  286  A    between atoms: _697  and  _700
REMARK  287  A    between atoms: _700  and  _701
REMARK  288  A    between atoms: _701  and  _702
REMARK  289  A    between atoms: _702  and  _703
REMARK  290  A    between atoms: _712  and  _714
REMARK  291  A    between atoms: _714  and  _715
REMARK  292  A    between atoms: _714  and  _717
REMARK  293  A    between atoms: _717  and  _718
REMARK  294  A    between atoms: _721  and  _723
REMARK  295  A    between atoms: _723  and  _724
REMARK  296  A    between atoms: _723  and  _726
REMARK  297  A    between atoms: _726  and  _727
REMARK  298  A    between atoms: _732  and  _733
REMARK  299  A    between atoms: _735  and  _737
REMARK  300  A    between atoms: _737  and  _738
REMARK  301  A    between atoms: _737  and  _740
REMARK  302  A    between atoms: _740  and  _741
REMARK  303  A    between atoms: _744  and  _746
REMARK  304  A    between atoms: _746  and  _747
REMARK  305  A    between atoms: _746  and  _749
REMARK  306  A    between atoms: _749  and  _750
REMARK  307  A    between atoms: _753  and  _755
REMARK  308  A    between atoms: _755  and  _756
REMARK  309  A    between atoms: _755  and  _758
REMARK  310  A    between atoms: _758  and  _759
REMARK  311  A    between atoms: _760  and  _762
REMARK  312  A    between atoms: _762  and  _763
REMARK  313  A    between atoms: _762  and  _765
REMARK  314  A    between atoms: _768  and  _770
REMARK  315  A    between atoms: _770  and  _771
REMARK  316  A    between atoms: _770  and  _773
REMARK  317  A    between atoms: _773  and  _774
REMARK  318  A    between atoms: _774  and  _775
REMARK  319  A    between atoms: _778  and  _780
REMARK  320  A    between atoms: _780  and  _781
REMARK  321  A    between atoms: _780  and  _783
REMARK  322  A    between atoms: _783  and  _784
REMARK  323  A    between atoms: _794  and  _796
REMARK  324  A    between atoms: _796  and  _797
REMARK  325  A    between atoms: _796  and  _799
REMARK  326  A    between atoms: _799  and  _800
REMARK  327  A    between atoms: _803  and  _805
REMARK  328  A    between atoms: _805  and  _806
REMARK  329  A    between atoms: _805  and  _808
REMARK  330  A    between atoms: _808  and  _809
REMARK  331  A    between atoms: _809  and  _810
REMARK  332  A    between atoms: _810  and  _811
REMARK  333  A    between atoms: _820  and  _822
REMARK  334  A    between atoms: _822  and  _823
REMARK  335  A    between atoms: _822  and  _825
REMARK  336  A    between atoms: _825  and  _826
REMARK  337  A    between atoms: _831  and  _832
REMARK                            x       y       z     vdW  Elec       q    Type
REMARK                         _______ _______ _______ _____ _____    ______ ____
ROOT
ATOM      1  O   HOH     1      57.302  23.455 -11.024  0.00  0.00    +0.000 OA
ENDROOT
TORSDOF 0
REMARK  Name = ../refined-set-2016/4pg9/4pg9_pocket.pdb
REMARK  337 active torsions:
REMARK  status: ('A' for Active; 'I' for Inactive)
REMARK    1  A    between atoms: _1  and  _3
REMARK    2  A    between atoms: _3  and  _4
REMARK    3  A    between atoms: _3  and  _6
REMARK    4  A    between atoms: _6  and  _7
REMARK    5  A    between atoms: _10  and  _12
REMARK    6  A    between atoms: _12  and  _13
REMARK    7  A    between atoms: _12  and  _15
REMARK    8  A    between atoms: _15  and  _16
REMARK    9  A    between atoms: _16  and  _17
REMARK   10  A    between atoms: _17  and  _18
REMARK   11  A    between atoms: _27  and  _29
REMARK   12  A    between atoms: _29  and  _30
REMARK   13  A    between atoms: _29  and  _32
REMARK   14  A    between atoms: _32  and  _33
REMARK   15  A    between atoms: _38  and  _39
REMARK   16  A    between atoms: _41  and  _43
REMARK   17  A    between atoms: _43  and  _44
REMARK   18  A    between atoms: _43  and  _46
REMARK   19  A    between atoms: _46  and  _47
REMARK   20  A    between atoms: _53  and  _55
REMARK   21  A    between atoms: _55  and  _56
REMARK   22  A    between atoms: _55  and  _58
REMARK   23  A    between atoms: _61  and  _63
REMARK   24  A    between atoms: _63  and  _64
REMARK   25  A    between atoms: _63  and  _66
REMARK   26  A    between atoms: _66  and  _67
REMARK   27  A    between atoms: _70  and  _72
REMARK   28  A    between atoms: _72  and  _73
REMARK   29  A    between atoms: _72  and  _75
REMARK   30  A    between atoms: _75  and  _76
REMARK   31  A    between atoms: _81  and  _82
REMARK   32  A    between atoms: _84  and  _86
REMARK   33  A    between atoms: _86  and  _87
REMARK   34  A    between atoms: _86  and  _89
REMARK   35  A    between atoms: _89  and  _90
REMARK   36  A    between atoms: _90  and  _91
REMARK   37  A    between atoms: _93  and  _95
REMARK   38  A    between atoms: _95  and  _96
REMARK   39  A    between atoms: _95  and  _98
REMARK   40  A    between atoms: _98  and  _99
REMARK   41  A    between atoms: _99  and  _100
REMARK   42  A    between atoms: _103  and  _105
REMARK   43  A    between atoms: _105  and  _106
REMARK   44  A    between atoms: _105  and  _108
REMARK   45  A    between atoms: _111  and  _113
REMARK   46  A    between atoms: _113  and  _114
REMARK   47  A    between atoms: _116  and  _118
REMARK   48  A    between atoms: _118  and  _119
REMARK   49  A    between atoms: _118  and  _121
REMARK   50  A    between atoms: _124  and  _126
REMARK   51  A    between atoms: _126  and  _127
REMARK   52  A    between atoms: _126  and  _129
REMARK   53  A    between atoms: _129  and  _130
REMARK   54  A    between atoms: _136  and  _138
REMARK   55  A    between atoms: _138  and  _139
REMARK   56  A    between atoms: _138  and  _141
REMARK   57  A    between atoms: _144  and  _146
REMARK   58  A    between atoms: _146  and  _147
REMARK   59  A    between atoms: _146  and  _149
REMARK   60  A    between atoms: _149  and  _150
REMARK   61  A    between atoms: _155  and  _156
REMARK   62  A    between atoms: _158  and  _160
REMARK   63  A    between atoms: _160  and  _161
REMARK   64  A    between atoms: _160  and  _163
REMARK   65  A    between atoms: _163  and  _164
REMARK   66  A    between atoms: _164  and  _165
REMARK   67  A    between atoms: _167  and  _169
REMARK   68  A    between atoms: _169  and  _170
REMARK   69  A    between atoms: _169  and  _172
REMARK   70  A    between atoms: _172  and  _173
REMARK   71  A    between atoms: _173  and  _174
REMARK   72  A    between atoms: _177  and  _179
REMARK   73  A    between atoms: _179  and  _180
REMARK   74  A    between atoms: _179  and  _182
REMARK   75  A    between atoms: _182  and  _183
REMARK   76  A    between atoms: _183  and  _184
REMARK   77  A    between atoms: _187  and  _189
REMARK   78  A    between atoms: _189  and  _190
REMARK   79  A    between atoms: _189  and  _192
REMARK   80  A    between atoms: _192  and  _193
REMARK   81  A    between atoms: _198  and  _199
REMARK   82  A    between atoms: _201  and  _203
REMARK   83  A    between atoms: _203  and  _204
REMARK   84  A    between atoms: _203  and  _206
REMARK   85  A    between atoms: _206  and  _207
REMARK   86  A    between atoms: _207  and  _208
REMARK   87  A    between atoms: _208  and  _209
REMARK   88  A    between atoms: _218  and  _220
REMARK   89  A    between atoms: _220  and  _221
REMARK   90  A    between atoms: _220  and  _223
REMARK   91  A    between atoms: _223  and  _224
REMARK   92  A    between atoms: _224  and  _225
REMARK   93  A    between atoms: _228  and  _230
REMARK   94  A    between atoms: _230  and  _231
REMARK   95  A    between atoms: _230  and  _233
REMARK   96  A    between atoms: _233  and  _234
REMARK   97  A    between atoms: _237  and  _239
REMARK   98  A    between atoms: _239  and  _240
REMARK   99  A    between atoms: _239  and  _242
REMARK  100  A    between atoms: _242  and  _243
REMARK  101  A    between atoms: _243  and  _244
REMARK  102  A    between atoms: _249  and  _251
REMARK  103  A    between atoms: _251  and  _252
REMARK  104  A    between atoms: _251  and  _254
REMARK  105  A    between atoms: _254  and  _255
REMARK  106  A    between atoms: _255  and  _256
REMARK  107  A    between atoms: _256  and  _257
REMARK  108  A    between atoms: _257  and  _258
REMARK  109  A    between atoms: _262  and  _264
REMARK  110  A    between atoms: _264  and  _265
REMARK  111  A    between atoms: _268  and  _270
REMARK  112  A    between atoms: _270  and  _271
REMARK  113  A    between atoms: _273  and  _275
REMARK  114  A    between atoms: _275  and  _276
REMARK  115  A    between atoms: _275  and  _278
REMARK  116  A    between atoms: _278  and  _279
REMARK  117  A    between atoms: _284  and  _286
REMARK  118  A    between atoms: _286  and  _287
REMARK  119  A    between atoms: _286  and  _289
REMARK  120  A    between atoms: _289  and  _290
REMARK  121  A    between atoms: _290  and  _291
REMARK  122  A    between atoms: _294  and  _296
REMARK  123  A    between atoms: _296  and  _297
REMARK  124  A    between atoms: _296  and  _299
REMARK  125  A    between atoms: _299  and  _300
REMARK  126  A    between atoms: _300  and  _301
REMARK  127  A    between atoms: _306  and  _308
REMARK  128  A    between atoms: _308  and  _309
REMARK  129  A    between atoms: _308  and  _311
REMARK  130  A    between atoms: _311  and  _312
REMARK  131  A    between atoms: _314  and  _316
REMARK  132  A    between atoms: _316  and  _317
REMARK  133  A    between atoms: _316  and  _319
REMARK  134  A    between atoms: _319  and  _320
REMARK  135  A    between atoms: _326  and  _328
REMARK  136  A    between atoms: _328  and  _329
REMARK  137  A    between atoms: _328  and  _331
REMARK  138  A    between atoms: _334  and  _336
REMARK  139  A    between atoms: _336  and  _337
REMARK  140  A    between atoms: _336  and  _339
REMARK  141  A    between atoms: _339  and  _340
REMARK  142  A    between atoms: _343  and  _345
REMARK  143  A    between atoms: _345  and  _346
REMARK  144  A    between atoms: _345  and  _348
REMARK  145  A    between atoms: _348  and  _349
REMARK  146  A    between atoms: _352  and  _354
REMARK  147  A    between atoms: _354  and  _355
REMARK  148  A    between atoms: _354  and  _357
REMARK  149  A    between atoms: _357  and  _358
REMARK  150  A    between atoms: _361  and  _363
REMARK  151  A    between atoms: _363  and  _364
REMARK  152  A    between atoms: _363  and  _366
REMARK  153  A    between atoms: _366  and  _367
REMARK  154  A    between atoms: _370  and  _372
REMARK  155  A    between atoms: _372  and  _373
REMARK  156  A    between atoms: _372  and  _375
REMARK  157  A    between atoms: _375  and  _376
REMARK  158  A    between atoms: _381  and  _382
REMARK  159  A    between atoms: _384  and  _386
REMARK  160  A    between atoms: _386  and  _387
REMARK  161  A    between atoms: _386  and  _389
REMARK  162  A    between atoms: _389  and  _390
REMARK  163  A    between atoms: _395  and  _396
REMARK  164  A    between atoms: _398  and  _400
REMARK  165  A    between atoms: _400  and  _401
REMARK  166  A    between atoms: _400  and  _403
REMARK  167  A    between atoms: _403  and  _404
REMARK  168  A    between atoms: _407  and  _409
REMARK  169  A    between atoms: _409  and  _410
REMARK  170  A    between atoms: _409  and  _412
REMARK  171  A    between atoms: _412  and  _413
REMARK  172  A    between atoms: _416  and  _418
REMARK  173  A    between atoms: _418  and  _419
REMARK  174  A    between atoms: _418  and  _421
REMARK  175  A    between atoms: _421  and  _422
REMARK  176  A    between atoms: _422  and  _423
REMARK  177  A    between atoms: _428  and  _430
REMARK  178  A    between atoms: _430  and  _431
REMARK  179  A    between atoms: _430  and  _433
REMARK  180  A    between atoms: _436  and  _438
REMARK  181  A    between atoms: _438  and  _439
REMARK  182  A    between atoms: _438  and  _441
REMARK  183  A    between atoms: _441  and  _442
REMARK  184  A    between atoms: _445  and  _447
REMARK  185  A    between atoms: _447  and  _448
REMARK  186  A    between atoms: _447  and  _450
REMARK  187  A    between atoms: _450  and  _451
REMARK  188  A    between atoms: _453  and  _455
REMARK  189  A    between atoms: _455  and  _456
REMARK  190  A    between atoms: _458  and  _460
REMARK  191  A    between atoms: _460  and  _461
REMARK  192  A    between atoms: _460  and  _463
REMARK  193  A    between atoms: _463  and  _464
REMARK  194  A    between atoms: _464  and  _759
REMARK  195  A    between atoms: _465  and  _467
REMARK  196  A    between atoms: _467  and  _468
REMARK  197  A    between atoms: _467  and  _470
REMARK  198  A    between atoms: _470  and  _471
REMARK  199  A    between atoms: _476  and  _477
REMARK  200  A    between atoms: _479  and  _481
REMARK  201  A    between atoms: _481  and  _482
REMARK  202  A    between atoms: _481  and  _484
REMARK  203  A    between atoms: _484  and  _485
REMARK  204  A    between atoms: _485  and  _486
REMARK  205  A    between atoms: _491  and  _493
REMARK  206  A    between atoms: _493  and  _494
REMARK  207  A    between atoms: _493  and  _496
REMARK  208  A    between atoms: _496  and  _497
REMARK  209  A    between atoms: _497  and  _498
REMARK  210  A    between atoms: _503  and  _505
REMARK  211  A    between atoms: _505  and  _506
REMARK  212  A    between atoms: _505  and  _508
REMARK  213  A    between atoms: _508  and  _509
REMARK  214  A    between atoms: _514  and  _515
REMARK  215  A    between atoms: _517  and  _519
REMARK  216  A    between atoms: _519  and  _520
REMARK  217  A    between atoms: _523  and  _525
REMARK  218  A    between atoms: _525  and  _526
REMARK  219  A    between atoms: _525  and  _528
REMARK  220  A    between atoms: _528  and  _529
REMARK  221  A    between atoms: _534  and  _535
REMARK  222  A    between atoms: _537  and  _539
REMARK  223  A    between atoms: _539  and  _540
REMARK  224  A    between atoms: _539  and  _542
REMARK  225  A    between atoms: _542  and  _543
REMARK  226  A    between atoms: _548  and  _549
REMARK  227  A    between atoms: _551  and  _553
REMARK  228  A    between atoms: _553  and  _554
REMARK  229  A    between atoms: _553  and  _556
REMARK  230  A    between atoms: _556  and  _557
REMARK  231  A    between atoms: _560  and  _562
REMARK  232  A    between atoms: _562  and  _563
REMARK  233  A    between atoms: _562  and  _565
REMARK  234  A    between atoms: _565  and  _566
REMARK  235  A    between atoms: _576  and  _578
REMARK  236  A    between atoms: _578  and  _579
REMARK  237  A    between atoms: _582  and  _584
REMARK  238  A    between atoms: _584  and  _585
REMARK  239  A    between atoms: _588  and  _590
REMARK  240  A    between atoms: _590  and  _591
REMARK  241  A    between atoms: _590  and  _593
REMARK  242  A    between atoms: _593  and  _594
REMARK  243  A    between atoms: _597  and  _599
REMARK  244  A    between atoms: _599  and  _600
REMARK  245  A    between atoms: _599  and  _602
REMARK  246  A    between atoms: _602  and  _603
REMARK  247  A    between atoms: _606  and  _608
REMARK  248  A    between atoms: _608  and  _609
REMARK  249  A    between atoms: _608  and  _611
REMARK  250  A    between atoms: _611  and  _612
REMARK  251  A    between atoms: _615  and  _617
REMARK  252  A    between atoms: _617  and  _618
REMARK  253  A    between atoms: _617  and  _620
REMARK  254  A    between atoms: _620  and  _621
REMARK  255  A    between atoms: _621  and  _622
REMARK  256  A    between atoms: _622  and  _623
REMARK  257  A    between atoms: _623  and  _624
REMARK  258  A    between atoms: _628  and  _630
REMARK  259  A    between atoms: _630  and  _631
REMARK  260  A    between atoms: _630  and  _633
REMARK  261  A    between atoms: _633  and  _634
REMARK  262  A    between atoms: _639  and  _641
REMARK  263  A    between atoms: _641  and  _642
REMARK  264  A    between atoms: _641  and  _644
REMARK  265  A    between atoms: _644  and  _645
REMARK  266  A    between atoms: _645  and  _646
REMARK  267  A    between atoms: _646  and  _647
REMARK  268  A    between atoms: _647  and  _648
REMARK  269  A    between atoms: _652  and  _654
REMARK  270  A    between atoms: _654  and  _655
REMARK  271  A    between atoms: _654  and  _657
REMARK  272  A    between atoms: _657  and  _658
REMARK  273  A    between atoms: _668  and  _670
REMARK  274  A    between atoms: _670  and  _671
REMARK  275  A    between atoms: _674  and  _676
REMARK  276  A    between atoms: _676  and  _677
REMARK  277  A    between atoms: _679  and  _681
REMARK  278  A    between atoms: _681  and  _682
REMARK  279  A    between atoms: _681  and  _684
REMARK  280  A    between atoms: _684  and  _685
REMARK  281  A    between atoms: _685  and  _686
REMARK  282  A    between atoms: _689  and  _691
REMARK  283  A    between atoms: _691  and  _692
REMARK  284  A    between atoms: _695  and  _697
REMARK  285  A    between atoms: _697  and  _698
REMARK  286  A    between atoms: _697  and  _700
REMARK  287  A    between atoms: _700  and  _701
REMARK  288  A    between atoms: _701  and  _702
REMARK  289  A    between atoms: _702  and  _703
REMARK  290  A    between atoms: _712  and  _714
REMARK  291  A    between atoms: _714  and  _715
REMARK  292  A    between atoms: _714  and  _717
REMARK  293  A    between atoms: _717  and  _718
REMARK  294  A    between atoms: _721  and  _723
REMARK  295  A    between atoms: _723  and  _724
REMARK  296  A    between atoms: _723  and  _726
REMARK  297  A    between atoms: _726  and  _727
REMARK  298  A    between atoms: _732  and  _733
REMARK  299  A    between atoms: _735  and  _737
REMARK  300  A    between atoms: _737  and  _738
REMARK  301  A    between atoms: _737  and  _740
REMARK  302  A    between atoms: _740  and  _741
REMARK  303  A    between atoms: _744  and  _746
REMARK  304  A    between atoms: _746  and  _747
REMARK  305  A    between atoms: _746  and  _749
REMARK  306  A    between atoms: _749  and  _750
REMARK  307  A    between atoms: _753  and  _755
REMARK  308  A    between atoms: _755  and  _756
REMARK  309  A    between atoms: _755  and  _758
REMARK  310  A    between atoms: _758  and  _759
REMARK  311  A    between atoms: _760  and  _762
REMARK  312  A    between atoms: _762  and  _763
REMARK  313  A    between atoms: _762  and  _765
REMARK  314  A    between atoms: _768  and  _770
REMARK  315  A    between atoms: _770  and  _771
REMARK  316  A    between atoms: _770  and  _773
REMARK  317  A    between atoms: _773  and  _774
REMARK  318  A    between atoms: _774  and  _775
REMARK  319  A    between atoms: _778  and  _780
REMARK  320  A    between atoms: _780  and  _781
REMARK  321  A    between atoms: _780  and  _783
REMARK  322  A    between atoms: _783  and  _784
REMARK  323  A    between atoms: _794  and  _796
REMARK  324  A    between atoms: _796  and  _797
REMARK  325  A    between atoms: _796  and  _799
REMARK  326  A    between atoms: _799  and  _800
REMARK  327  A    between atoms: _803  and  _805
REMARK  328  A    between atoms: _805  and  _806
REMARK  329  A    between atoms: _805  and  _808
REMARK  330  A    between atoms: _808  and  _809
REMARK  331  A    between atoms: _809  and  _810
REMARK  332  A    between atoms: _810  and  _811
REMARK  333  A    between atoms: _820  and  _822
REMARK  334  A    between atoms: _822  and  _823
REMARK  335  A    between atoms: _822  and  _825
REMARK  336  A    between atoms: _825  and  _826
REMARK  337  A    between atoms: _831  and  _832
REMARK                            x       y       z     vdW  Elec       q    Type
REMARK                         _______ _______ _______ _____ _____    ______ ____
ROOT
ATOM      1  O   HOH     1      61.406  22.313   7.947  0.00  0.00    +0.000 OA
ENDROOT
TORSDOF 0
REMARK  Name = ../refined-set-2016/4pg9/4pg9_pocket.pdb
REMARK  337 active torsions:
REMARK  status: ('A' for Active; 'I' for Inactive)
REMARK    1  A    between atoms: _1  and  _3
REMARK    2  A    between atoms: _3  and  _4
REMARK    3  A    between atoms: _3  and  _6
REMARK    4  A    between atoms: _6  and  _7
REMARK    5  A    between atoms: _10  and  _12
REMARK    6  A    between atoms: _12  and  _13
REMARK    7  A    between atoms: _12  and  _15
REMARK    8  A    between atoms: _15  and  _16
REMARK    9  A    between atoms: _16  and  _17
REMARK   10  A    between atoms: _17  and  _18
REMARK   11  A    between atoms: _27  and  _29
REMARK   12  A    between atoms: _29  and  _30
REMARK   13  A    between atoms: _29  and  _32
REMARK   14  A    between atoms: _32  and  _33
REMARK   15  A    between atoms: _38  and  _39
REMARK   16  A    between atoms: _41  and  _43
REMARK   17  A    between atoms: _43  and  _44
REMARK   18  A    between atoms: _43  and  _46
REMARK   19  A    between atoms: _46  and  _47
REMARK   20  A    between atoms: _53  and  _55
REMARK   21  A    between atoms: _55  and  _56
REMARK   22  A    between atoms: _55  and  _58
REMARK   23  A    between atoms: _61  and  _63
REMARK   24  A    between atoms: _63  and  _64
REMARK   25  A    between atoms: _63  and  _66
REMARK   26  A    between atoms: _66  and  _67
REMARK   27  A    between atoms: _70  and  _72
REMARK   28  A    between atoms: _72  and  _73
REMARK   29  A    between atoms: _72  and  _75
REMARK   30  A    between atoms: _75  and  _76
REMARK   31  A    between atoms: _81  and  _82
REMARK   32  A    between atoms: _84  and  _86
REMARK   33  A    between atoms: _86  and  _87
REMARK   34  A    between atoms: _86  and  _89
REMARK   35  A    between atoms: _89  and  _90
REMARK   36  A    between atoms: _90  and  _91
REMARK   37  A    between atoms: _93  and  _95
REMARK   38  A    between atoms: _95  and  _96
REMARK   39  A    between atoms: _95  and  _98
REMARK   40  A    between atoms: _98  and  _99
REMARK   41  A    between atoms: _99  and  _100
REMARK   42  A    between atoms: _103  and  _105
REMARK   43  A    between atoms: _105  and  _106
REMARK   44  A    between atoms: _105  and  _108
REMARK   45  A    between atoms: _111  and  _113
REMARK   46  A    between atoms: _113  and  _114
REMARK   47  A    between atoms: _116  and  _118
REMARK   48  A    between atoms: _118  and  _119
REMARK   49  A    between atoms: _118  and  _121
REMARK   50  A    between atoms: _124  and  _126
REMARK   51  A    between atoms: _126  and  _127
REMARK   52  A    between atoms: _126  and  _129
REMARK   53  A    between atoms: _129  and  _130
REMARK   54  A    between atoms: _136  and  _138
REMARK   55  A    between atoms: _138  and  _139
REMARK   56  A    between atoms: _138  and  _141
REMARK   57  A    between atoms: _144  and  _146
REMARK   58  A    between atoms: _146  and  _147
REMARK   59  A    between atoms: _146  and  _149
REMARK   60  A    between atoms: _149  and  _150
REMARK   61  A    between atoms: _155  and  _156
REMARK   62  A    between atoms: _158  and  _160
REMARK   63  A    between atoms: _160  and  _161
REMARK   64  A    between atoms: _160  and  _163
REMARK   65  A    between atoms: _163  and  _164
REMARK   66  A    between atoms: _164  and  _165
REMARK   67  A    between atoms: _167  and  _169
REMARK   68  A    between atoms: _169  and  _170
REMARK   69  A    between atoms: _169  and  _172
REMARK   70  A    between atoms: _172  and  _173
REMARK   71  A    between atoms: _173  and  _174
REMARK   72  A    between atoms: _177  and  _179
REMARK   73  A    between atoms: _179  and  _180
REMARK   74  A    between atoms: _179  and  _182
REMARK   75  A    between atoms: _182  and  _183
REMARK   76  A    between atoms: _183  and  _184
REMARK   77  A    between atoms: _187  and  _189
REMARK   78  A    between atoms: _189  and  _190
REMARK   79  A    between atoms: _189  and  _192
REMARK   80  A    between atoms: _192  and  _193
REMARK   81  A    between atoms: _198  and  _199
REMARK   82  A    between atoms: _201  and  _203
REMARK   83  A    between atoms: _203  and  _204
REMARK   84  A    between atoms: _203  and  _206
REMARK   85  A    between atoms: _206  and  _207
REMARK   86  A    between atoms: _207  and  _208
REMARK   87  A    between atoms: _208  and  _209
REMARK   88  A    between atoms: _218  and  _220
REMARK   89  A    between atoms: _220  and  _221
REMARK   90  A    between atoms: _220  and  _223
REMARK   91  A    between atoms: _223  and  _224
REMARK   92  A    between atoms: _224  and  _225
REMARK   93  A    between atoms: _228  and  _230
REMARK   94  A    between atoms: _230  and  _231
REMARK   95  A    between atoms: _230  and  _233
REMARK   96  A    between atoms: _233  and  _234
REMARK   97  A    between atoms: _237  and  _239
REMARK   98  A    between atoms: _239  and  _240
REMARK   99  A    between atoms: _239  and  _242
REMARK  100  A    between atoms: _242  and  _243
REMARK  101  A    between atoms: _243  and  _244
REMARK  102  A    between atoms: _249  and  _251
REMARK  103  A    between atoms: _251  and  _252
REMARK  104  A    between atoms: _251  and  _254
REMARK  105  A    between atoms: _254  and  _255
REMARK  106  A    between atoms: _255  and  _256
REMARK  107  A    between atoms: _256  and  _257
REMARK  108  A    between atoms: _257  and  _258
REMARK  109  A    between atoms: _262  and  _264
REMARK  110  A    between atoms: _264  and  _265
REMARK  111  A    between atoms: _268  and  _270
REMARK  112  A    between atoms: _270  and  _271
REMARK  113  A    between atoms: _273  and  _275
REMARK  114  A    between atoms: _275  and  _276
REMARK  115  A    between atoms: _275  and  _278
REMARK  116  A    between atoms: _278  and  _279
REMARK  117  A    between atoms: _284  and  _286
REMARK  118  A    between atoms: _286  and  _287
REMARK  119  A    between atoms: _286  and  _289
REMARK  120  A    between atoms: _289  and  _290
REMARK  121  A    between atoms: _290  and  _291
REMARK  122  A    between atoms: _294  and  _296
REMARK  123  A    between atoms: _296  and  _297
REMARK  124  A    between atoms: _296  and  _299
REMARK  125  A    between atoms: _299  and  _300
REMARK  126  A    between atoms: _300  and  _301
REMARK  127  A    between atoms: _306  and  _308
REMARK  128  A    between atoms: _308  and  _309
REMARK  129  A    between atoms: _308  and  _311
REMARK  130  A    between atoms: _311  and  _312
REMARK  131  A    between atoms: _314  and  _316
REMARK  132  A    between atoms: _316  and  _317
REMARK  133  A    between atoms: _316  and  _319
REMARK  134  A    between atoms: _319  and  _320
REMARK  135  A    between atoms: _326  and  _328
REMARK  136  A    between atoms: _328  and  _329
REMARK  137  A    between atoms: _328  and  _331
REMARK  138  A    between atoms: _334  and  _336
REMARK  139  A    between atoms: _336  and  _337
REMARK  140  A    between atoms: _336  and  _339
REMARK  141  A    between atoms: _339  and  _340
REMARK  142  A    between atoms: _343  and  _345
REMARK  143  A    between atoms: _345  and  _346
REMARK  144  A    between atoms: _345  and  _348
REMARK  145  A    between atoms: _348  and  _349
REMARK  146  A    between atoms: _352  and  _354
REMARK  147  A    between atoms: _354  and  _355
REMARK  148  A    between atoms: _354  and  _357
REMARK  149  A    between atoms: _357  and  _358
REMARK  150  A    between atoms: _361  and  _363
REMARK  151  A    between atoms: _363  and  _364
REMARK  152  A    between atoms: _363  and  _366
REMARK  153  A    between atoms: _366  and  _367
REMARK  154  A    between atoms: _370  and  _372
REMARK  155  A    between atoms: _372  and  _373
REMARK  156  A    between atoms: _372  and  _375
REMARK  157  A    between atoms: _375  and  _376
REMARK  158  A    between atoms: _381  and  _382
REMARK  159  A    between atoms: _384  and  _386
REMARK  160  A    between atoms: _386  and  _387
REMARK  161  A    between atoms: _386  and  _389
REMARK  162  A    between atoms: _389  and  _390
REMARK  163  A    between atoms: _395  and  _396
REMARK  164  A    between atoms: _398  and  _400
REMARK  165  A    between atoms: _400  and  _401
REMARK  166  A    between atoms: _400  and  _403
REMARK  167  A    between atoms: _403  and  _404
REMARK  168  A    between atoms: _407  and  _409
REMARK  169  A    between atoms: _409  and  _410
REMARK  170  A    between atoms: _409  and  _412
REMARK  171  A    between atoms: _412  and  _413
REMARK  172  A    between atoms: _416  and  _418
REMARK  173  A    between atoms: _418  and  _419
REMARK  174  A    between atoms: _418  and  _421
REMARK  175  A    between atoms: _421  and  _422
REMARK  176  A    between atoms: _422  and  _423
REMARK  177  A    between atoms: _428  and  _430
REMARK  178  A    between atoms: _430  and  _431
REMARK  179  A    between atoms: _430  and  _433
REMARK  180  A    between atoms: _436  and  _438
REMARK  181  A    between atoms: _438  and  _439
REMARK  182  A    between atoms: _438  and  _441
REMARK  183  A    between atoms: _441  and  _442
REMARK  184  A    between atoms: _445  and  _447
REMARK  185  A    between atoms: _447  and  _448
REMARK  186  A    between atoms: _447  and  _450
REMARK  187  A    between atoms: _450  and  _451
REMARK  188  A    between atoms: _453  and  _455
REMARK  189  A    between atoms: _455  and  _456
REMARK  190  A    between atoms: _458  and  _460
REMARK  191  A    between atoms: _460  and  _461
REMARK  192  A    between atoms: _460  and  _463
REMARK  193  A    between atoms: _463  and  _464
REMARK  194  A    between atoms: _464  and  _759
REMARK  195  A    between atoms: _465  and  _467
REMARK  196  A    between atoms: _467  and  _468
REMARK  197  A    between atoms: _467  and  _470
REMARK  198  A    between atoms: _470  and  _471
REMARK  199  A    between atoms: _476  and  _477
REMARK  200  A    between atoms: _479  and  _481
REMARK  201  A    between atoms: _481  and  _482
REMARK  202  A    between atoms: _481  and  _484
REMARK  203  A    between atoms: _484  and  _485
REMARK  204  A    between atoms: _485  and  _486
REMARK  205  A    between atoms: _491  and  _493
REMARK  206  A    between atoms: _493  and  _494
REMARK  207  A    between atoms: _493  and  _496
REMARK  208  A    between atoms: _496  and  _497
REMARK  209  A    between atoms: _497  and  _498
REMARK  210  A    between atoms: _503  and  _505
REMARK  211  A    between atoms: _505  and  _506
REMARK  212  A    between atoms: _505  and  _508
REMARK  213  A    between atoms: _508  and  _509
REMARK  214  A    between atoms: _514  and  _515
REMARK  215  A    between atoms: _517  and  _519
REMARK  216  A    between atoms: _519  and  _520
REMARK  217  A    between atoms: _523  and  _525
REMARK  218  A    between atoms: _525  and  _526
REMARK  219  A    between atoms: _525  and  _528
REMARK  220  A    between atoms: _528  and  _529
REMARK  221  A    between atoms: _534  and  _535
REMARK  222  A    between atoms: _537  and  _539
REMARK  223  A    between atoms: _539  and  _540
REMARK  224  A    between atoms: _539  and  _542
REMARK  225  A    between atoms: _542  and  _543
REMARK  226  A    between atoms: _548  and  _549
REMARK  227  A    between atoms: _551  and  _553
REMARK  228  A    between atoms: _553  and  _554
REMARK  229  A    between atoms: _553  and  _556
REMARK  230  A    between atoms: _556  and  _557
REMARK  231  A    between atoms: _560  and  _562
REMARK  232  A    between atoms: _562  and  _563
REMARK  233  A    between atoms: _562  and  _565
REMARK  234  A    between atoms: _565  and  _566
REMARK  235  A    between atoms: _576  and  _578
REMARK  236  A    between atoms: _578  and  _579
REMARK  237  A    between atoms: _582  and  _584
REMARK  238  A    between atoms: _584  and  _585
REMARK  239  A    between atoms: _588  and  _590
REMARK  240  A    between atoms: _590  and  _591
REMARK  241  A    between atoms: _590  and  _593
REMARK  242  A    between atoms: _593  and  _594
REMARK  243  A    between atoms: _597  and  _599
REMARK  244  A    between atoms: _599  and  _600
REMARK  245  A    between atoms: _599  and  _602
REMARK  246  A    between atoms: _602  and  _603
REMARK  247  A    between atoms: _606  and  _608
REMARK  248  A    between atoms: _608  and  _609
REMARK  249  A    between atoms: _608  and  _611
REMARK  250  A    between atoms: _611  and  _612
REMARK  251  A    between atoms: _615  and  _617
REMARK  252  A    between atoms: _617  and  _618
REMARK  253  A    between atoms: _617  and  _620
REMARK  254  A    between atoms: _620  and  _621
REMARK  255  A    between atoms: _621  and  _622
REMARK  256  A    between atoms: _622  and  _623
REMARK  257  A    between atoms: _623  and  _624
REMARK  258  A    between atoms: _628  and  _630
REMARK  259  A    between atoms: _630  and  _631
REMARK  260  A    between atoms: _630  and  _633
REMARK  261  A    between atoms: _633  and  _634
REMARK  262  A    between atoms: _639  and  _641
REMARK  263  A    between atoms: _641  and  _642
REMARK  264  A    between atoms: _641  and  _644
REMARK  265  A    between atoms: _644  and  _645
REMARK  266  A    between atoms: _645  and  _646
REMARK  267  A    between atoms: _646  and  _647
REMARK  268  A    between atoms: _647  and  _648
REMARK  269  A    between atoms: _652  and  _654
REMARK  270  A    between atoms: _654  and  _655
REMARK  271  A    between atoms: _654  and  _657
REMARK  272  A    between atoms: _657  and  _658
REMARK  273  A    between atoms: _668  and  _670
REMARK  274  A    between atoms: _670  and  _671
REMARK  275  A    between atoms: _674  and  _676
REMARK  276  A    between atoms: _676  and  _677
REMARK  277  A    between atoms: _679  and  _681
REMARK  278  A    between atoms: _681  and  _682
REMARK  279  A    between atoms: _681  and  _684
REMARK  280  A    between atoms: _684  and  _685
REMARK  281  A    between atoms: _685  and  _686
REMARK  282  A    between atoms: _689  and  _691
REMARK  283  A    between atoms: _691  and  _692
REMARK  284  A    between atoms: _695  and  _697
REMARK  285  A    between atoms: _697  and  _698
REMARK  286  A    between atoms: _697  and  _700
REMARK  287  A    between atoms: _700  and  _701
REMARK  288  A    between atoms: _701  and  _702
REMARK  289  A    between atoms: _702  and  _703
REMARK  290  A    between atoms: _712  and  _714
REMARK  291  A    between atoms: _714  and  _715
REMARK  292  A    between atoms: _714  and  _717
REMARK  293  A    between atoms: _717  and  _718
REMARK  294  A    between atoms: _721  and  _723
REMARK  295  A    between atoms: _723  and  _724
REMARK  296  A    between atoms: _723  and  _726
REMARK  297  A    between atoms: _726  and  _727
REMARK  298  A    between atoms: _732  and  _733
REMARK  299  A    between atoms: _735  and  _737
REMARK  300  A    between atoms: _737  and  _738
REMARK  301  A    between atoms: _737  and  _740
REMARK  302  A    between atoms: _740  and  _741
REMARK  303  A    between atoms: _744  and  _746
REMARK  304  A    between atoms: _746  and  _747
REMARK  305  A    between atoms: _746  and  _749
REMARK  306  A    between atoms: _749  and  _750
REMARK  307  A    between atoms: _753  and  _755
REMARK  308  A    between atoms: _755  and  _756
REMARK  309  A    between atoms: _755  and  _758
REMARK  310  A    between atoms: _758  and  _759
REMARK  311  A    between atoms: _760  and  _762
REMARK  312  A    between atoms: _762  and  _763
REMARK  313  A    between atoms: _762  and  _765
REMARK  314  A    between atoms: _768  and  _770
REMARK  315  A    between atoms: _770  and  _771
REMARK  316  A    between atoms: _770  and  _773
REMARK  317  A    between atoms: _773  and  _774
REMARK  318  A    between atoms: _774  and  _775
REMARK  319  A    between atoms: _778  and  _780
REMARK  320  A    between atoms: _780  and  _781
REMARK  321  A    between atoms: _780  and  _783
REMARK  322  A    between atoms: _783  and  _784
REMARK  323  A    between atoms: _794  and  _796
REMARK  324  A    between atoms: _796  and  _797
REMARK  325  A    between atoms: _796  and  _799
REMARK  326  A    between atoms: _799  and  _800
REMARK  327  A    between atoms: _803  and  _805
REMARK  328  A    between atoms: _805  and  _806
REMARK  329  A    between atoms: _805  and  _808
REMARK  330  A    between atoms: _808  and  _809
REMARK  331  A    between atoms: _809  and  _810
REMARK  332  A    between atoms: _810  and  _811
REMARK  333  A    between atoms: _820  and  _822
REMARK  334  A    between atoms: _822  and  _823
REMARK  335  A    between atoms: _822  and  _825
REMARK  336  A    between atoms: _825  and  _826
REMARK  337  A    between atoms: _831  and  _832
REMARK                            x       y       z     vdW  Elec       q    Type
REMARK                         _______ _______ _______ _____ _____    ______ ____
ROOT
ATOM      1  O   HOH     1      60.117  29.173  -5.077  0.00  0.00    +0.000 OA
ENDROOT
TORSDOF 0
REMARK  Name = ../refined-set-2016/4pg9/4pg9_pocket.pdb
REMARK  337 active torsions:
REMARK  status: ('A' for Active; 'I' for Inactive)
REMARK    1  A    between atoms: _1  and  _3
REMARK    2  A    between atoms: _3  and  _4
REMARK    3  A    between atoms: _3  and  _6
REMARK    4  A    between atoms: _6  and  _7
REMARK    5  A    between atoms: _10  and  _12
REMARK    6  A    between atoms: _12  and  _13
REMARK    7  A    between atoms: _12  and  _15
REMARK    8  A    between atoms: _15  and  _16
REMARK    9  A    between atoms: _16  and  _17
REMARK   10  A    between atoms: _17  and  _18
REMARK   11  A    between atoms: _27  and  _29
REMARK   12  A    between atoms: _29  and  _30
REMARK   13  A    between atoms: _29  and  _32
REMARK   14  A    between atoms: _32  and  _33
REMARK   15  A    between atoms: _38  and  _39
REMARK   16  A    between atoms: _41  and  _43
REMARK   17  A    between atoms: _43  and  _44
REMARK   18  A    between atoms: _43  and  _46
REMARK   19  A    between atoms: _46  and  _47
REMARK   20  A    between atoms: _53  and  _55
REMARK   21  A    between atoms: _55  and  _56
REMARK   22  A    between atoms: _55  and  _58
REMARK   23  A    between atoms: _61  and  _63
REMARK   24  A    between atoms: _63  and  _64
REMARK   25  A    between atoms: _63  and  _66
REMARK   26  A    between atoms: _66  and  _67
REMARK   27  A    between atoms: _70  and  _72
REMARK   28  A    between atoms: _72  and  _73
REMARK   29  A    between atoms: _72  and  _75
REMARK   30  A    between atoms: _75  and  _76
REMARK   31  A    between atoms: _81  and  _82
REMARK   32  A    between atoms: _84  and  _86
REMARK   33  A    between atoms: _86  and  _87
REMARK   34  A    between atoms: _86  and  _89
REMARK   35  A    between atoms: _89  and  _90
REMARK   36  A    between atoms: _90  and  _91
REMARK   37  A    between atoms: _93  and  _95
REMARK   38  A    between atoms: _95  and  _96
REMARK   39  A    between atoms: _95  and  _98
REMARK   40  A    between atoms: _98  and  _99
REMARK   41  A    between atoms: _99  and  _100
REMARK   42  A    between atoms: _103  and  _105
REMARK   43  A    between atoms: _105  and  _106
REMARK   44  A    between atoms: _105  and  _108
REMARK   45  A    between atoms: _111  and  _113
REMARK   46  A    between atoms: _113  and  _114
REMARK   47  A    between atoms: _116  and  _118
REMARK   48  A    between atoms: _118  and  _119
REMARK   49  A    between atoms: _118  and  _121
REMARK   50  A    between atoms: _124  and  _126
REMARK   51  A    between atoms: _126  and  _127
REMARK   52  A    between atoms: _126  and  _129
REMARK   53  A    between atoms: _129  and  _130
REMARK   54  A    between atoms: _136  and  _138
REMARK   55  A    between atoms: _138  and  _139
REMARK   56  A    between atoms: _138  and  _141
REMARK   57  A    between atoms: _144  and  _146
REMARK   58  A    between atoms: _146  and  _147
REMARK   59  A    between atoms: _146  and  _149
REMARK   60  A    between atoms: _149  and  _150
REMARK   61  A    between atoms: _155  and  _156
REMARK   62  A    between atoms: _158  and  _160
REMARK   63  A    between atoms: _160  and  _161
REMARK   64  A    between atoms: _160  and  _163
REMARK   65  A    between atoms: _163  and  _164
REMARK   66  A    between atoms: _164  and  _165
REMARK   67  A    between atoms: _167  and  _169
REMARK   68  A    between atoms: _169  and  _170
REMARK   69  A    between atoms: _169  and  _172
REMARK   70  A    between atoms: _172  and  _173
REMARK   71  A    between atoms: _173  and  _174
REMARK   72  A    between atoms: _177  and  _179
REMARK   73  A    between atoms: _179  and  _180
REMARK   74  A    between atoms: _179  and  _182
REMARK   75  A    between atoms: _182  and  _183
REMARK   76  A    between atoms: _183  and  _184
REMARK   77  A    between atoms: _187  and  _189
REMARK   78  A    between atoms: _189  and  _190
REMARK   79  A    between atoms: _189  and  _192
REMARK   80  A    between atoms: _192  and  _193
REMARK   81  A    between atoms: _198  and  _199
REMARK   82  A    between atoms: _201  and  _203
REMARK   83  A    between atoms: _203  and  _204
REMARK   84  A    between atoms: _203  and  _206
REMARK   85  A    between atoms: _206  and  _207
REMARK   86  A    between atoms: _207  and  _208
REMARK   87  A    between atoms: _208  and  _209
REMARK   88  A    between atoms: _218  and  _220
REMARK   89  A    between atoms: _220  and  _221
REMARK   90  A    between atoms: _220  and  _223
REMARK   91  A    between atoms: _223  and  _224
REMARK   92  A    between atoms: _224  and  _225
REMARK   93  A    between atoms: _228  and  _230
REMARK   94  A    between atoms: _230  and  _231
REMARK   95  A    between atoms: _230  and  _233
REMARK   96  A    between atoms: _233  and  _234
REMARK   97  A    between atoms: _237  and  _239
REMARK   98  A    between atoms: _239  and  _240
REMARK   99  A    between atoms: _239  and  _242
REMARK  100  A    between atoms: _242  and  _243
REMARK  101  A    between atoms: _243  and  _244
REMARK  102  A    between atoms: _249  and  _251
REMARK  103  A    between atoms: _251  and  _252
REMARK  104  A    between atoms: _251  and  _254
REMARK  105  A    between atoms: _254  and  _255
REMARK  106  A    between atoms: _255  and  _256
REMARK  107  A    between atoms: _256  and  _257
REMARK  108  A    between atoms: _257  and  _258
REMARK  109  A    between atoms: _262  and  _264
REMARK  110  A    between atoms: _264  and  _265
REMARK  111  A    between atoms: _268  and  _270
REMARK  112  A    between atoms: _270  and  _271
REMARK  113  A    between atoms: _273  and  _275
REMARK  114  A    between atoms: _275  and  _276
REMARK  115  A    between atoms: _275  and  _278
REMARK  116  A    between atoms: _278  and  _279
REMARK  117  A    between atoms: _284  and  _286
REMARK  118  A    between atoms: _286  and  _287
REMARK  119  A    between atoms: _286  and  _289
REMARK  120  A    between atoms: _289  and  _290
REMARK  121  A    between atoms: _290  and  _291
REMARK  122  A    between atoms: _294  and  _296
REMARK  123  A    between atoms: _296  and  _297
REMARK  124  A    between atoms: _296  and  _299
REMARK  125  A    between atoms: _299  and  _300
REMARK  126  A    between atoms: _300  and  _301
REMARK  127  A    between atoms: _306  and  _308
REMARK  128  A    between atoms: _308  and  _309
REMARK  129  A    between atoms: _308  and  _311
REMARK  130  A    between atoms: _311  and  _312
REMARK  131  A    between atoms: _314  and  _316
REMARK  132  A    between atoms: _316  and  _317
REMARK  133  A    between atoms: _316  and  _319
REMARK  134  A    between atoms: _319  and  _320
REMARK  135  A    between atoms: _326  and  _328
REMARK  136  A    between atoms: _328  and  _329
REMARK  137  A    between atoms: _328  and  _331
REMARK  138  A    between atoms: _334  and  _336
REMARK  139  A    between atoms: _336  and  _337
REMARK  140  A    between atoms: _336  and  _339
REMARK  141  A    between atoms: _339  and  _340
REMARK  142  A    between atoms: _343  and  _345
REMARK  143  A    between atoms: _345  and  _346
REMARK  144  A    between atoms: _345  and  _348
REMARK  145  A    between atoms: _348  and  _349
REMARK  146  A    between atoms: _352  and  _354
REMARK  147  A    between atoms: _354  and  _355
REMARK  148  A    between atoms: _354  and  _357
REMARK  149  A    between atoms: _357  and  _358
REMARK  150  A    between atoms: _361  and  _363
REMARK  151  A    between atoms: _363  and  _364
REMARK  152  A    between atoms: _363  and  _366
REMARK  153  A    between atoms: _366  and  _367
REMARK  154  A    between atoms: _370  and  _372
REMARK  155  A    between atoms: _372  and  _373
REMARK  156  A    between atoms: _372  and  _375
REMARK  157  A    between atoms: _375  and  _376
REMARK  158  A    between atoms: _381  and  _382
REMARK  159  A    between atoms: _384  and  _386
REMARK  160  A    between atoms: _386  and  _387
REMARK  161  A    between atoms: _386  and  _389
REMARK  162  A    between atoms: _389  and  _390
REMARK  163  A    between atoms: _395  and  _396
REMARK  164  A    between atoms: _398  and  _400
REMARK  165  A    between atoms: _400  and  _401
REMARK  166  A    between atoms: _400  and  _403
REMARK  167  A    between atoms: _403  and  _404
REMARK  168  A    between atoms: _407  and  _409
REMARK  169  A    between atoms: _409  and  _410
REMARK  170  A    between atoms: _409  and  _412
REMARK  171  A    between atoms: _412  and  _413
REMARK  172  A    between atoms: _416  and  _418
REMARK  173  A    between atoms: _418  and  _419
REMARK  174  A    between atoms: _418  and  _421
REMARK  175  A    between atoms: _421  and  _422
REMARK  176  A    between atoms: _422  and  _423
REMARK  177  A    between atoms: _428  and  _430
REMARK  178  A    between atoms: _430  and  _431
REMARK  179  A    between atoms: _430  and  _433
REMARK  180  A    between atoms: _436  and  _438
REMARK  181  A    between atoms: _438  and  _439
REMARK  182  A    between atoms: _438  and  _441
REMARK  183  A    between atoms: _441  and  _442
REMARK  184  A    between atoms: _445  and  _447
REMARK  185  A    between atoms: _447  and  _448
REMARK  186  A    between atoms: _447  and  _450
REMARK  187  A    between atoms: _450  and  _451
REMARK  188  A    between atoms: _453  and  _455
REMARK  189  A    between atoms: _455  and  _456
REMARK  190  A    between atoms: _458  and  _460
REMARK  191  A    between atoms: _460  and  _461
REMARK  192  A    between atoms: _460  and  _463
REMARK  193  A    between atoms: _463  and  _464
REMARK  194  A    between atoms: _464  and  _759
REMARK  195  A    between atoms: _465  and  _467
REMARK  196  A    between atoms: _467  and  _468
REMARK  197  A    between atoms: _467  and  _470
REMARK  198  A    between atoms: _470  and  _471
REMARK  199  A    between atoms: _476  and  _477
REMARK  200  A    between atoms: _479  and  _481
REMARK  201  A    between atoms: _481  and  _482
REMARK  202  A    between atoms: _481  and  _484
REMARK  203  A    between atoms: _484  and  _485
REMARK  204  A    between atoms: _485  and  _486
REMARK  205  A    between atoms: _491  and  _493
REMARK  206  A    between atoms: _493  and  _494
REMARK  207  A    between atoms: _493  and  _496
REMARK  208  A    between atoms: _496  and  _497
REMARK  209  A    between atoms: _497  and  _498
REMARK  210  A    between atoms: _503  and  _505
REMARK  211  A    between atoms: _505  and  _506
REMARK  212  A    between atoms: _505  and  _508
REMARK  213  A    between atoms: _508  and  _509
REMARK  214  A    between atoms: _514  and  _515
REMARK  215  A    between atoms: _517  and  _519
REMARK  216  A    between atoms: _519  and  _520
REMARK  217  A    between atoms: _523  and  _525
REMARK  218  A    between atoms: _525  and  _526
REMARK  219  A    between atoms: _525  and  _528
REMARK  220  A    between atoms: _528  and  _529
REMARK  221  A    between atoms: _534  and  _535
REMARK  222  A    between atoms: _537  and  _539
REMARK  223  A    between atoms: _539  and  _540
REMARK  224  A    between atoms: _539  and  _542
REMARK  225  A    between atoms: _542  and  _543
REMARK  226  A    between atoms: _548  and  _549
REMARK  227  A    between atoms: _551  and  _553
REMARK  228  A    between atoms: _553  and  _554
REMARK  229  A    between atoms: _553  and  _556
REMARK  230  A    between atoms: _556  and  _557
REMARK  231  A    between atoms: _560  and  _562
REMARK  232  A    between atoms: _562  and  _563
REMARK  233  A    between atoms: _562  and  _565
REMARK  234  A    between atoms: _565  and  _566
REMARK  235  A    between atoms: _576  and  _578
REMARK  236  A    between atoms: _578  and  _579
REMARK  237  A    between atoms: _582  and  _584
REMARK  238  A    between atoms: _584  and  _585
REMARK  239  A    between atoms: _588  and  _590
REMARK  240  A    between atoms: _590  and  _591
REMARK  241  A    between atoms: _590  and  _593
REMARK  242  A    between atoms: _593  and  _594
REMARK  243  A    between atoms: _597  and  _599
REMARK  244  A    between atoms: _599  and  _600
REMARK  245  A    between atoms: _599  and  _602
REMARK  246  A    between atoms: _602  and  _603
REMARK  247  A    between atoms: _606  and  _608
REMARK  248  A    between atoms: _608  and  _609
REMARK  249  A    between atoms: _608  and  _611
REMARK  250  A    between atoms: _611  and  _612
REMARK  251  A    between atoms: _615  and  _617
REMARK  252  A    between atoms: _617  and  _618
REMARK  253  A    between atoms: _617  and  _620
REMARK  254  A    between atoms: _620  and  _621
REMARK  255  A    between atoms: _621  and  _622
REMARK  256  A    between atoms: _622  and  _623
REMARK  257  A    between atoms: _623  and  _624
REMARK  258  A    between atoms: _628  and  _630
REMARK  259  A    between atoms: _630  and  _631
REMARK  260  A    between atoms: _630  and  _633
REMARK  261  A    between atoms: _633  and  _634
REMARK  262  A    between atoms: _639  and  _641
REMARK  263  A    between atoms: _641  and  _642
REMARK  264  A    between atoms: _641  and  _644
REMARK  265  A    between atoms: _644  and  _645
REMARK  266  A    between atoms: _645  and  _646
REMARK  267  A    between atoms: _646  and  _647
REMARK  268  A    between atoms: _647  and  _648
REMARK  269  A    between atoms: _652  and  _654
REMARK  270  A    between atoms: _654  and  _655
REMARK  271  A    between atoms: _654  and  _657
REMARK  272  A    between atoms: _657  and  _658
REMARK  273  A    between atoms: _668  and  _670
REMARK  274  A    between atoms: _670  and  _671
REMARK  275  A    between atoms: _674  and  _676
REMARK  276  A    between atoms: _676  and  _677
REMARK  277  A    between atoms: _679  and  _681
REMARK  278  A    between atoms: _681  and  _682
REMARK  279  A    between atoms: _681  and  _684
REMARK  280  A    between atoms: _684  and  _685
REMARK  281  A    between atoms: _685  and  _686
REMARK  282  A    between atoms: _689  and  _691
REMARK  283  A    between atoms: _691  and  _692
REMARK  284  A    between atoms: _695  and  _697
REMARK  285  A    between atoms: _697  and  _698
REMARK  286  A    between atoms: _697  and  _700
REMARK  287  A    between atoms: _700  and  _701
REMARK  288  A    between atoms: _701  and  _702
REMARK  289  A    between atoms: _702  and  _703
REMARK  290  A    between atoms: _712  and  _714
REMARK  291  A    between atoms: _714  and  _715
REMARK  292  A    between atoms: _714  and  _717
REMARK  293  A    between atoms: _717  and  _718
REMARK  294  A    between atoms: _721  and  _723
REMARK  295  A    between atoms: _723  and  _724
REMARK  296  A    between atoms: _723  and  _726
REMARK  297  A    between atoms: _726  and  _727
REMARK  298  A    between atoms: _732  and  _733
REMARK  299  A    between atoms: _735  and  _737
REMARK  300  A    between atoms: _737  and  _738
REMARK  301  A    between atoms: _737  and  _740
REMARK  302  A    between atoms: _740  and  _741
REMARK  303  A    between atoms: _744  and  _746
REMARK  304  A    between atoms: _746  and  _747
REMARK  305  A    between atoms: _746  and  _749
REMARK  306  A    between atoms: _749  and  _750
REMARK  307  A    between atoms: _753  and  _755
REMARK  308  A    between atoms: _755  and  _756
REMARK  309  A    between atoms: _755  and  _758
REMARK  310  A    between atoms: _758  and  _759
REMARK  311  A    between atoms: _760  and  _762
REMARK  312  A    between atoms: _762  and  _763
REMARK  313  A    between atoms: _762  and  _765
REMARK  314  A    between atoms: _768  and  _770
REMARK  315  A    between atoms: _770  and  _771
REMARK  316  A    between atoms: _770  and  _773
REMARK  317  A    between atoms: _773  and  _774
REMARK  318  A    between atoms: _774  and  _775
REMARK  319  A    between atoms: _778  and  _780
REMARK  320  A    between atoms: _780  and  _781
REMARK  321  A    between atoms: _780  and  _783
REMARK  322  A    between atoms: _783  and  _784
REMARK  323  A    between atoms: _794  and  _796
REMARK  324  A    between atoms: _796  and  _797
REMARK  325  A    between atoms: _796  and  _799
REMARK  326  A    between atoms: _799  and  _800
REMARK  327  A    between atoms: _803  and  _805
REMARK  328  A    between atoms: _805  and  _806
REMARK  329  A    between atoms: _805  and  _808
REMARK  330  A    between atoms: _808  and  _809
REMARK  331  A    between atoms: _809  and  _810
REMARK  332  A    between atoms: _810  and  _811
REMARK  333  A    between atoms: _820  and  _822
REMARK  334  A    between atoms: _822  and  _823
REMARK  335  A    between atoms: _822  and  _825
REMARK  336  A    between atoms: _825  and  _826
REMARK  337  A    between atoms: _831  and  _832
REMARK                            x       y       z     vdW  Elec       q    Type
REMARK                         _______ _______ _______ _____ _____    ______ ____
ROOT
ATOM      1  O   HOH     1      55.112  24.911  -0.608  0.00  0.00    +0.000 OA
ENDROOT
TORSDOF 0
REMARK  Name = ../refined-set-2016/4pg9/4pg9_pocket.pdb
REMARK  337 active torsions:
REMARK  status: ('A' for Active; 'I' for Inactive)
REMARK    1  A    between atoms: _1  and  _3
REMARK    2  A    between atoms: _3  and  _4
REMARK    3  A    between atoms: _3  and  _6
REMARK    4  A    between atoms: _6  and  _7
REMARK    5  A    between atoms: _10  and  _12
REMARK    6  A    between atoms: _12  and  _13
REMARK    7  A    between atoms: _12  and  _15
REMARK    8  A    between atoms: _15  and  _16
REMARK    9  A    between atoms: _16  and  _17
REMARK   10  A    between atoms: _17  and  _18
REMARK   11  A    between atoms: _27  and  _29
REMARK   12  A    between atoms: _29  and  _30
REMARK   13  A    between atoms: _29  and  _32
REMARK   14  A    between atoms: _32  and  _33
REMARK   15  A    between atoms: _38  and  _39
REMARK   16  A    between atoms: _41  and  _43
REMARK   17  A    between atoms: _43  and  _44
REMARK   18  A    between atoms: _43  and  _46
REMARK   19  A    between atoms: _46  and  _47
REMARK   20  A    between atoms: _53  and  _55
REMARK   21  A    between atoms: _55  and  _56
REMARK   22  A    between atoms: _55  and  _58
REMARK   23  A    between atoms: _61  and  _63
REMARK   24  A    between atoms: _63  and  _64
REMARK   25  A    between atoms: _63  and  _66
REMARK   26  A    between atoms: _66  and  _67
REMARK   27  A    between atoms: _70  and  _72
REMARK   28  A    between atoms: _72  and  _73
REMARK   29  A    between atoms: _72  and  _75
REMARK   30  A    between atoms: _75  and  _76
REMARK   31  A    between atoms: _81  and  _82
REMARK   32  A    between atoms: _84  and  _86
REMARK   33  A    between atoms: _86  and  _87
REMARK   34  A    between atoms: _86  and  _89
REMARK   35  A    between atoms: _89  and  _90
REMARK   36  A    between atoms: _90  and  _91
REMARK   37  A    between atoms: _93  and  _95
REMARK   38  A    between atoms: _95  and  _96
REMARK   39  A    between atoms: _95  and  _98
REMARK   40  A    between atoms: _98  and  _99
REMARK   41  A    between atoms: _99  and  _100
REMARK   42  A    between atoms: _103  and  _105
REMARK   43  A    between atoms: _105  and  _106
REMARK   44  A    between atoms: _105  and  _108
REMARK   45  A    between atoms: _111  and  _113
REMARK   46  A    between atoms: _113  and  _114
REMARK   47  A    between atoms: _116  and  _118
REMARK   48  A    between atoms: _118  and  _119
REMARK   49  A    between atoms: _118  and  _121
REMARK   50  A    between atoms: _124  and  _126
REMARK   51  A    between atoms: _126  and  _127
REMARK   52  A    between atoms: _126  and  _129
REMARK   53  A    between atoms: _129  and  _130
REMARK   54  A    between atoms: _136  and  _138
REMARK   55  A    between atoms: _138  and  _139
REMARK   56  A    between atoms: _138  and  _141
REMARK   57  A    between atoms: _144  and  _146
REMARK   58  A    between atoms: _146  and  _147
REMARK   59  A    between atoms: _146  and  _149
REMARK   60  A    between atoms: _149  and  _150
REMARK   61  A    between atoms: _155  and  _156
REMARK   62  A    between atoms: _158  and  _160
REMARK   63  A    between atoms: _160  and  _161
REMARK   64  A    between atoms: _160  and  _163
REMARK   65  A    between atoms: _163  and  _164
REMARK   66  A    between atoms: _164  and  _165
REMARK   67  A    between atoms: _167  and  _169
REMARK   68  A    between atoms: _169  and  _170
REMARK   69  A    between atoms: _169  and  _172
REMARK   70  A    between atoms: _172  and  _173
REMARK   71  A    between atoms: _173  and  _174
REMARK   72  A    between atoms: _177  and  _179
REMARK   73  A    between atoms: _179  and  _180
REMARK   74  A    between atoms: _179  and  _182
REMARK   75  A    between atoms: _182  and  _183
REMARK   76  A    between atoms: _183  and  _184
REMARK   77  A    between atoms: _187  and  _189
REMARK   78  A    between atoms: _189  and  _190
REMARK   79  A    between atoms: _189  and  _192
REMARK   80  A    between atoms: _192  and  _193
REMARK   81  A    between atoms: _198  and  _199
REMARK   82  A    between atoms: _201  and  _203
REMARK   83  A    between atoms: _203  and  _204
REMARK   84  A    between atoms: _203  and  _206
REMARK   85  A    between atoms: _206  and  _207
REMARK   86  A    between atoms: _207  and  _208
REMARK   87  A    between atoms: _208  and  _209
REMARK   88  A    between atoms: _218  and  _220
REMARK   89  A    between atoms: _220  and  _221
REMARK   90  A    between atoms: _220  and  _223
REMARK   91  A    between atoms: _223  and  _224
REMARK   92  A    between atoms: _224  and  _225
REMARK   93  A    between atoms: _228  and  _230
REMARK   94  A    between atoms: _230  and  _231
REMARK   95  A    between atoms: _230  and  _233
REMARK   96  A    between atoms: _233  and  _234
REMARK   97  A    between atoms: _237  and  _239
REMARK   98  A    between atoms: _239  and  _240
REMARK   99  A    between atoms: _239  and  _242
REMARK  100  A    between atoms: _242  and  _243
REMARK  101  A    between atoms: _243  and  _244
REMARK  102  A    between atoms: _249  and  _251
REMARK  103  A    between atoms: _251  and  _252
REMARK  104  A    between atoms: _251  and  _254
REMARK  105  A    between atoms: _254  and  _255
REMARK  106  A    between atoms: _255  and  _256
REMARK  107  A    between atoms: _256  and  _257
REMARK  108  A    between atoms: _257  and  _258
REMARK  109  A    between atoms: _262  and  _264
REMARK  110  A    between atoms: _264  and  _265
REMARK  111  A    between atoms: _268  and  _270
REMARK  112  A    between atoms: _270  and  _271
REMARK  113  A    between atoms: _273  and  _275
REMARK  114  A    between atoms: _275  and  _276
REMARK  115  A    between atoms: _275  and  _278
REMARK  116  A    between atoms: _278  and  _279
REMARK  117  A    between atoms: _284  and  _286
REMARK  118  A    between atoms: _286  and  _287
REMARK  119  A    between atoms: _286  and  _289
REMARK  120  A    between atoms: _289  and  _290
REMARK  121  A    between atoms: _290  and  _291
REMARK  122  A    between atoms: _294  and  _296
REMARK  123  A    between atoms: _296  and  _297
REMARK  124  A    between atoms: _296  and  _299
REMARK  125  A    between atoms: _299  and  _300
REMARK  126  A    between atoms: _300  and  _301
REMARK  127  A    between atoms: _306  and  _308
REMARK  128  A    between atoms: _308  and  _309
REMARK  129  A    between atoms: _308  and  _311
REMARK  130  A    between atoms: _311  and  _312
REMARK  131  A    between atoms: _314  and  _316
REMARK  132  A    between atoms: _316  and  _317
REMARK  133  A    between atoms: _316  and  _319
REMARK  134  A    between atoms: _319  and  _320
REMARK  135  A    between atoms: _326  and  _328
REMARK  136  A    between atoms: _328  and  _329
REMARK  137  A    between atoms: _328  and  _331
REMARK  138  A    between atoms: _334  and  _336
REMARK  139  A    between atoms: _336  and  _337
REMARK  140  A    between atoms: _336  and  _339
REMARK  141  A    between atoms: _339  and  _340
REMARK  142  A    between atoms: _343  and  _345
REMARK  143  A    between atoms: _345  and  _346
REMARK  144  A    between atoms: _345  and  _348
REMARK  145  A    between atoms: _348  and  _349
REMARK  146  A    between atoms: _352  and  _354
REMARK  147  A    between atoms: _354  and  _355
REMARK  148  A    between atoms: _354  and  _357
REMARK  149  A    between atoms: _357  and  _358
REMARK  150  A    between atoms: _361  and  _363
REMARK  151  A    between atoms: _363  and  _364
REMARK  152  A    between atoms: _363  and  _366
REMARK  153  A    between atoms: _366  and  _367
REMARK  154  A    between atoms: _370  and  _372
REMARK  155  A    between atoms: _372  and  _373
REMARK  156  A    between atoms: _372  and  _375
REMARK  157  A    between atoms: _375  and  _376
REMARK  158  A    between atoms: _381  and  _382
REMARK  159  A    between atoms: _384  and  _386
REMARK  160  A    between atoms: _386  and  _387
REMARK  161  A    between atoms: _386  and  _389
REMARK  162  A    between atoms: _389  and  _390
REMARK  163  A    between atoms: _395  and  _396
REMARK  164  A    between atoms: _398  and  _400
REMARK  165  A    between atoms: _400  and  _401
REMARK  166  A    between atoms: _400  and  _403
REMARK  167  A    between atoms: _403  and  _404
REMARK  168  A    between atoms: _407  and  _409
REMARK  169  A    between atoms: _409  and  _410
REMARK  170  A    between atoms: _409  and  _412
REMARK  171  A    between atoms: _412  and  _413
REMARK  172  A    between atoms: _416  and  _418
REMARK  173  A    between atoms: _418  and  _419
REMARK  174  A    between atoms: _418  and  _421
REMARK  175  A    between atoms: _421  and  _422
REMARK  176  A    between atoms: _422  and  _423
REMARK  177  A    between atoms: _428  and  _430
REMARK  178  A    between atoms: _430  and  _431
REMARK  179  A    between atoms: _430  and  _433
REMARK  180  A    between atoms: _436  and  _438
REMARK  181  A    between atoms: _438  and  _439
REMARK  182  A    between atoms: _438  and  _441
REMARK  183  A    between atoms: _441  and  _442
REMARK  184  A    between atoms: _445  and  _447
REMARK  185  A    between atoms: _447  and  _448
REMARK  186  A    between atoms: _447  and  _450
REMARK  187  A    between atoms: _450  and  _451
REMARK  188  A    between atoms: _453  and  _455
REMARK  189  A    between atoms: _455  and  _456
REMARK  190  A    between atoms: _458  and  _460
REMARK  191  A    between atoms: _460  and  _461
REMARK  192  A    between atoms: _460  and  _463
REMARK  193  A    between atoms: _463  and  _464
REMARK  194  A    between atoms: _464  and  _759
REMARK  195  A    between atoms: _465  and  _467
REMARK  196  A    between atoms: _467  and  _468
REMARK  197  A    between atoms: _467  and  _470
REMARK  198  A    between atoms: _470  and  _471
REMARK  199  A    between atoms: _476  and  _477
REMARK  200  A    between atoms: _479  and  _481
REMARK  201  A    between atoms: _481  and  _482
REMARK  202  A    between atoms: _481  and  _484
REMARK  203  A    between atoms: _484  and  _485
REMARK  204  A    between atoms: _485  and  _486
REMARK  205  A    between atoms: _491  and  _493
REMARK  206  A    between atoms: _493  and  _494
REMARK  207  A    between atoms: _493  and  _496
REMARK  208  A    between atoms: _496  and  _497
REMARK  209  A    between atoms: _497  and  _498
REMARK  210  A    between atoms: _503  and  _505
REMARK  211  A    between atoms: _505  and  _506
REMARK  212  A    between atoms: _505  and  _508
REMARK  213  A    between atoms: _508  and  _509
REMARK  214  A    between atoms: _514  and  _515
REMARK  215  A    between atoms: _517  and  _519
REMARK  216  A    between atoms: _519  and  _520
REMARK  217  A    between atoms: _523  and  _525
REMARK  218  A    between atoms: _525  and  _526
REMARK  219  A    between atoms: _525  and  _528
REMARK  220  A    between atoms: _528  and  _529
REMARK  221  A    between atoms: _534  and  _535
REMARK  222  A    between atoms: _537  and  _539
REMARK  223  A    between atoms: _539  and  _540
REMARK  224  A    between atoms: _539  and  _542
REMARK  225  A    between atoms: _542  and  _543
REMARK  226  A    between atoms: _548  and  _549
REMARK  227  A    between atoms: _551  and  _553
REMARK  228  A    between atoms: _553  and  _554
REMARK  229  A    between atoms: _553  and  _556
REMARK  230  A    between atoms: _556  and  _557
REMARK  231  A    between atoms: _560  and  _562
REMARK  232  A    between atoms: _562  and  _563
REMARK  233  A    between atoms: _562  and  _565
REMARK  234  A    between atoms: _565  and  _566
REMARK  235  A    between atoms: _576  and  _578
REMARK  236  A    between atoms: _578  and  _579
REMARK  237  A    between atoms: _582  and  _584
REMARK  238  A    between atoms: _584  and  _585
REMARK  239  A    between atoms: _588  and  _590
REMARK  240  A    between atoms: _590  and  _591
REMARK  241  A    between atoms: _590  and  _593
REMARK  242  A    between atoms: _593  and  _594
REMARK  243  A    between atoms: _597  and  _599
REMARK  244  A    between atoms: _599  and  _600
REMARK  245  A    between atoms: _599  and  _602
REMARK  246  A    between atoms: _602  and  _603
REMARK  247  A    between atoms: _606  and  _608
REMARK  248  A    between atoms: _608  and  _609
REMARK  249  A    between atoms: _608  and  _611
REMARK  250  A    between atoms: _611  and  _612
REMARK  251  A    between atoms: _615  and  _617
REMARK  252  A    between atoms: _617  and  _618
REMARK  253  A    between atoms: _617  and  _620
REMARK  254  A    between atoms: _620  and  _621
REMARK  255  A    between atoms: _621  and  _622
REMARK  256  A    between atoms: _622  and  _623
REMARK  257  A    between atoms: _623  and  _624
REMARK  258  A    between atoms: _628  and  _630
REMARK  259  A    between atoms: _630  and  _631
REMARK  260  A    between atoms: _630  and  _633
REMARK  261  A    between atoms: _633  and  _634
REMARK  262  A    between atoms: _639  and  _641
REMARK  263  A    between atoms: _641  and  _642
REMARK  264  A    between atoms: _641  and  _644
REMARK  265  A    between atoms: _644  and  _645
REMARK  266  A    between atoms: _645  and  _646
REMARK  267  A    between atoms: _646  and  _647
REMARK  268  A    between atoms: _647  and  _648
REMARK  269  A    between atoms: _652  and  _654
REMARK  270  A    between atoms: _654  and  _655
REMARK  271  A    between atoms: _654  and  _657
REMARK  272  A    between atoms: _657  and  _658
REMARK  273  A    between atoms: _668  and  _670
REMARK  274  A    between atoms: _670  and  _671
REMARK  275  A    between atoms: _674  and  _676
REMARK  276  A    between atoms: _676  and  _677
REMARK  277  A    between atoms: _679  and  _681
REMARK  278  A    between atoms: _681  and  _682
REMARK  279  A    between atoms: _681  and  _684
REMARK  280  A    between atoms: _684  and  _685
REMARK  281  A    between atoms: _685  and  _686
REMARK  282  A    between atoms: _689  and  _691
REMARK  283  A    between atoms: _691  and  _692
REMARK  284  A    between atoms: _695  and  _697
REMARK  285  A    between atoms: _697  and  _698
REMARK  286  A    between atoms: _697  and  _700
REMARK  287  A    between atoms: _700  and  _701
REMARK  288  A    between atoms: _701  and  _702
REMARK  289  A    between atoms: _702  and  _703
REMARK  290  A    between atoms: _712  and  _714
REMARK  291  A    between atoms: _714  and  _715
REMARK  292  A    between atoms: _714  and  _717
REMARK  293  A    between atoms: _717  and  _718
REMARK  294  A    between atoms: _721  and  _723
REMARK  295  A    between atoms: _723  and  _724
REMARK  296  A    between atoms: _723  and  _726
REMARK  297  A    between atoms: _726  and  _727
REMARK  298  A    between atoms: _732  and  _733
REMARK  299  A    between atoms: _735  and  _737
REMARK  300  A    between atoms: _737  and  _738
REMARK  301  A    between atoms: _737  and  _740
REMARK  302  A    between atoms: _740  and  _741
REMARK  303  A    between atoms: _744  and  _746
REMARK  304  A    between atoms: _746  and  _747
REMARK  305  A    between atoms: _746  and  _749
REMARK  306  A    between atoms: _749  and  _750
REMARK  307  A    between atoms: _753  and  _755
REMARK  308  A    between atoms: _755  and  _756
REMARK  309  A    between atoms: _755  and  _758
REMARK  310  A    between atoms: _758  and  _759
REMARK  311  A    between atoms: _760  and  _762
REMARK  312  A    between atoms: _762  and  _763
REMARK  313  A    between atoms: _762  and  _765
REMARK  314  A    between atoms: _768  and  _770
REMARK  315  A    between atoms: _770  and  _771
REMARK  316  A    between atoms: _770  and  _773
REMARK  317  A    between atoms: _773  and  _774
REMARK  318  A    between atoms: _774  and  _775
REMARK  319  A    between atoms: _778  and  _780
REMARK  320  A    between atoms: _780  and  _781
REMARK  321  A    between atoms: _780  and  _783
REMARK  322  A    between atoms: _783  and  _784
REMARK  323  A    between atoms: _794  and  _796
REMARK  324  A    between atoms: _796  and  _797
REMARK  325  A    between atoms: _796  and  _799
REMARK  326  A    between atoms: _799  and  _800
REMARK  327  A    between atoms: _803  and  _805
REMARK  328  A    between atoms: _805  and  _806
REMARK  329  A    between atoms: _805  and  _808
REMARK  330  A    between atoms: _808  and  _809
REMARK  331  A    between atoms: _809  and  _810
REMARK  332  A    between atoms: _810  and  _811
REMARK  333  A    between atoms: _820  and  _822
REMARK  334  A    between atoms: _822  and  _823
REMARK  335  A    between atoms: _822  and  _825
REMARK  336  A    between atoms: _825  and  _826
REMARK  337  A    between atoms: _831  and  _832
REMARK                            x       y       z     vdW  Elec       q    Type
REMARK                         _______ _______ _______ _____ _____    ______ ____
ROOT
ATOM      1  O   HOH     1      58.325  22.539  -7.283  0.00  0.00    +0.000 OA
ENDROOT
TORSDOF 0
