REMARK  Name = ../refined-set-2016/4ucc/4ucc_pocket.pdb
REMARK  137 active torsions:
REMARK  status: ('A' for Active; 'I' for Inactive)
REMARK    1  A    between atoms: _1  and  _3
REMARK    2  A    between atoms: _3  and  _4
REMARK    3  A    between atoms: _3  and  _6
REMARK    4  A    between atoms: _6  and  _7
REMARK    5  A    between atoms: _12  and  _14
REMARK    6  A    between atoms: _14  and  _15
REMARK    7  A    between atoms: _14  and  _17
REMARK    8  A    between atoms: _17  and  _18
REMARK    9  A    between atoms: _18  and  _19
REMARK   10  A    between atoms: _19  and  _20
REMARK   11  A    between atoms: _20  and  _21
REMARK   12  A    between atoms: _25  and  _27
REMARK   13  A    between atoms: _27  and  _28
REMARK   14  A    between atoms: _27  and  _30
REMARK   15  A    between atoms: _30  and  _31
REMARK   16  A    between atoms: _34  and  _36
REMARK   17  A    between atoms: _36  and  _37
REMARK   18  A    between atoms: _39  and  _41
REMARK   19  A    between atoms: _41  and  _42
REMARK   20  A    between atoms: _41  and  _44
REMARK   21  A    between atoms: _44  and  _45
REMARK   22  A    between atoms: _45  and  _46
REMARK   23  A    between atoms: _48  and  _50
REMARK   24  A    between atoms: _50  and  _51
REMARK   25  A    between atoms: _50  and  _53
REMARK   26  A    between atoms: _53  and  _54
REMARK   27  A    between atoms: _57  and  _59
REMARK   28  A    between atoms: _59  and  _60
REMARK   29  A    between atoms: _59  and  _62
REMARK   30  A    between atoms: _62  and  _63
REMARK   31  A    between atoms: _66  and  _68
REMARK   32  A    between atoms: _68  and  _69
REMARK   33  A    between atoms: _68  and  _71
REMARK   34  A    between atoms: _71  and  _72
REMARK   35  A    between atoms: _75  and  _77
REMARK   36  A    between atoms: _77  and  _78
REMARK   37  A    between atoms: _77  and  _80
REMARK   38  A    between atoms: _80  and  _81
REMARK   39  A    between atoms: _81  and  _82
REMARK   40  A    between atoms: _82  and  _83
REMARK   41  A    between atoms: _83  and  _84
REMARK   42  A    between atoms: _88  and  _90
REMARK   43  A    between atoms: _90  and  _91
REMARK   44  A    between atoms: _90  and  _93
REMARK   45  A    between atoms: _93  and  _94
REMARK   46  A    between atoms: _100  and  _102
REMARK   47  A    between atoms: _102  and  _103
REMARK   48  A    between atoms: _102  and  _105
REMARK   49  A    between atoms: _105  and  _106
REMARK   50  A    between atoms: _106  and  _107
REMARK   51  A    between atoms: _110  and  _112
REMARK   52  A    between atoms: _112  and  _113
REMARK   53  A    between atoms: _112  and  _115
REMARK   54  A    between atoms: _115  and  _116
REMARK   55  A    between atoms: _116  and  _117
REMARK   56  A    between atoms: _122  and  _124
REMARK   57  A    between atoms: _124  and  _125
REMARK   58  A    between atoms: _124  and  _127
REMARK   59  A    between atoms: _127  and  _128
REMARK   60  A    between atoms: _131  and  _133
REMARK   61  A    between atoms: _133  and  _134
REMARK   62  A    between atoms: _133  and  _136
REMARK   63  A    between atoms: _136  and  _137
REMARK   64  A    between atoms: _137  and  _138
REMARK   65  A    between atoms: _141  and  _143
REMARK   66  A    between atoms: _143  and  _144
REMARK   67  A    between atoms: _143  and  _146
REMARK   68  A    between atoms: _146  and  _147
REMARK   69  A    between atoms: _150  and  _152
REMARK   70  A    between atoms: _152  and  _153
REMARK   71  A    between atoms: _152  and  _155
REMARK   72  A    between atoms: _155  and  _156
REMARK   73  A    between atoms: _156  and  _157
REMARK   74  A    between atoms: _160  and  _162
REMARK   75  A    between atoms: _162  and  _163
REMARK   76  A    between atoms: _162  and  _165
REMARK   77  A    between atoms: _165  and  _166
REMARK   78  A    between atoms: _168  and  _170
REMARK   79  A    between atoms: _170  and  _171
REMARK   80  A    between atoms: _170  and  _173
REMARK   81  A    between atoms: _173  and  _174
REMARK   82  A    between atoms: _174  and  _175
REMARK   83  A    between atoms: _175  and  _176
REMARK   84  A    between atoms: _185  and  _187
REMARK   85  A    between atoms: _187  and  _188
REMARK   86  A    between atoms: _187  and  _190
REMARK   87  A    between atoms: _190  and  _191
REMARK   88  A    between atoms: _191  and  _192
REMARK   89  A    between atoms: _192  and  _193
REMARK   90  A    between atoms: _193  and  _194
REMARK   91  A    between atoms: _198  and  _200
REMARK   92  A    between atoms: _200  and  _201
REMARK   93  A    between atoms: _200  and  _203
REMARK   94  A    between atoms: _203  and  _204
REMARK   95  A    between atoms: _206  and  _208
REMARK   96  A    between atoms: _208  and  _209
REMARK   97  A    between atoms: _208  and  _211
REMARK   98  A    between atoms: _211  and  _212
REMARK   99  A    between atoms: _217  and  _218
REMARK  100  A    between atoms: _220  and  _222
REMARK  101  A    between atoms: _222  and  _223
REMARK  102  A    between atoms: _222  and  _225
REMARK  103  A    between atoms: _225  and  _226
REMARK  104  A    between atoms: _226  and  _227
REMARK  105  A    between atoms: _227  and  _228
REMARK  106  A    between atoms: _228  and  _229
REMARK  107  A    between atoms: _233  and  _235
REMARK  108  A    between atoms: _235  and  _236
REMARK  109  A    between atoms: _235  and  _238
REMARK  110  A    between atoms: _238  and  _239
REMARK  111  A    between atoms: _239  and  _240
REMARK  112  A    between atoms: _242  and  _244
REMARK  113  A    between atoms: _244  and  _245
REMARK  114  A    between atoms: _244  and  _247
REMARK  115  A    between atoms: _247  and  _248
REMARK  116  A    between atoms: _251  and  _253
REMARK  117  A    between atoms: _253  and  _254
REMARK  118  A    between atoms: _253  and  _256
REMARK  119  A    between atoms: _256  and  _257
REMARK  120  A    between atoms: _257  and  _258
REMARK  121  A    between atoms: _261  and  _263
REMARK  122  A    between atoms: _263  and  _264
REMARK  123  A    between atoms: _263  and  _266
REMARK  124  A    between atoms: _269  and  _271
REMARK  125  A    between atoms: _271  and  _272
REMARK  126  A    between atoms: _271  and  _274
REMARK  127  A    between atoms: _274  and  _275
REMARK  128  A    between atoms: _275  and  _276
REMARK  129  A    between atoms: _276  and  _277
REMARK  130  A    between atoms: _286  and  _288
REMARK  131  A    between atoms: _288  and  _289
REMARK  132  A    between atoms: _288  and  _291
REMARK  133  A    between atoms: _291  and  _292
REMARK  134  A    between atoms: _297  and  _299
REMARK  135  A    between atoms: _299  and  _300
REMARK  136  A    between atoms: _299  and  _302
REMARK  137  A    between atoms: _302  and  _303
REMARK                            x       y       z     vdW  Elec       q    Type
REMARK                         _______ _______ _______ _____ _____    ______ ____
ROOT
ATOM      1  CB  HIS A   1     -20.270   5.919 -28.548  0.00  0.00    +0.072 C 
ENDROOT
BRANCH   1   2
ATOM      2  CG  HIS A   1     -19.683   5.766 -27.185  0.00  0.00    +0.082 A 
ATOM      3  ND1 HIS A   1     -20.484   5.742 -26.065  0.00  0.00    -0.227 NA
ATOM      4  CE1 HIS A   1     -19.657   5.638 -25.038  0.00  0.00    +0.199 A 
ATOM      5  NE2 HIS A   1     -18.388   5.593 -25.434  0.00  0.00    -0.221 NA
ATOM      6  CD2 HIS A   1     -18.387   5.679 -26.800  0.00  0.00    +0.115 A 
ENDBRANCH   1   2
BRANCH   1   7
ATOM      7  CA  HIS A   1     -20.090   7.334 -29.095  0.00  0.00    +0.139 C 
BRANCH   7   8
ATOM      8  N   HIS A   1     -20.869   7.540 -30.317  0.00  0.00    -0.239 NA
ATOM      9  H   HIS A   1     -21.345   6.723 -30.751  0.00  0.00    +0.142 HD
ENDBRANCH   7   8
BRANCH   7  10
ATOM     10  C   HIS A   1     -18.608   7.625 -29.318  0.00  0.00    +0.224 C 
ATOM     11  O   HIS A   1     -17.998   8.298 -28.499  0.00  0.00    -0.287 OA
ENDBRANCH   7  10
ENDBRANCH   1   7
TORSDOF 4
REMARK  Name = ../refined-set-2016/4ucc/4ucc_pocket.pdb
REMARK  137 active torsions:
REMARK  status: ('A' for Active; 'I' for Inactive)
REMARK    1  A    between atoms: _1  and  _3
REMARK    2  A    between atoms: _3  and  _4
REMARK    3  A    between atoms: _3  and  _6
REMARK    4  A    between atoms: _6  and  _7
REMARK    5  A    between atoms: _12  and  _14
REMARK    6  A    between atoms: _14  and  _15
REMARK    7  A    between atoms: _14  and  _17
REMARK    8  A    between atoms: _17  and  _18
REMARK    9  A    between atoms: _18  and  _19
REMARK   10  A    between atoms: _19  and  _20
REMARK   11  A    between atoms: _20  and  _21
REMARK   12  A    between atoms: _25  and  _27
REMARK   13  A    between atoms: _27  and  _28
REMARK   14  A    between atoms: _27  and  _30
REMARK   15  A    between atoms: _30  and  _31
REMARK   16  A    between atoms: _34  and  _36
REMARK   17  A    between atoms: _36  and  _37
REMARK   18  A    between atoms: _39  and  _41
REMARK   19  A    between atoms: _41  and  _42
REMARK   20  A    between atoms: _41  and  _44
REMARK   21  A    between atoms: _44  and  _45
REMARK   22  A    between atoms: _45  and  _46
REMARK   23  A    between atoms: _48  and  _50
REMARK   24  A    between atoms: _50  and  _51
REMARK   25  A    between atoms: _50  and  _53
REMARK   26  A    between atoms: _53  and  _54
REMARK   27  A    between atoms: _57  and  _59
REMARK   28  A    between atoms: _59  and  _60
REMARK   29  A    between atoms: _59  and  _62
REMARK   30  A    between atoms: _62  and  _63
REMARK   31  A    between atoms: _66  and  _68
REMARK   32  A    between atoms: _68  and  _69
REMARK   33  A    between atoms: _68  and  _71
REMARK   34  A    between atoms: _71  and  _72
REMARK   35  A    between atoms: _75  and  _77
REMARK   36  A    between atoms: _77  and  _78
REMARK   37  A    between atoms: _77  and  _80
REMARK   38  A    between atoms: _80  and  _81
REMARK   39  A    between atoms: _81  and  _82
REMARK   40  A    between atoms: _82  and  _83
REMARK   41  A    between atoms: _83  and  _84
REMARK   42  A    between atoms: _88  and  _90
REMARK   43  A    between atoms: _90  and  _91
REMARK   44  A    between atoms: _90  and  _93
REMARK   45  A    between atoms: _93  and  _94
REMARK   46  A    between atoms: _100  and  _102
REMARK   47  A    between atoms: _102  and  _103
REMARK   48  A    between atoms: _102  and  _105
REMARK   49  A    between atoms: _105  and  _106
REMARK   50  A    between atoms: _106  and  _107
REMARK   51  A    between atoms: _110  and  _112
REMARK   52  A    between atoms: _112  and  _113
REMARK   53  A    between atoms: _112  and  _115
REMARK   54  A    between atoms: _115  and  _116
REMARK   55  A    between atoms: _116  and  _117
REMARK   56  A    between atoms: _122  and  _124
REMARK   57  A    between atoms: _124  and  _125
REMARK   58  A    between atoms: _124  and  _127
REMARK   59  A    between atoms: _127  and  _128
REMARK   60  A    between atoms: _131  and  _133
REMARK   61  A    between atoms: _133  and  _134
REMARK   62  A    between atoms: _133  and  _136
REMARK   63  A    between atoms: _136  and  _137
REMARK   64  A    between atoms: _137  and  _138
REMARK   65  A    between atoms: _141  and  _143
REMARK   66  A    between atoms: _143  and  _144
REMARK   67  A    between atoms: _143  and  _146
REMARK   68  A    between atoms: _146  and  _147
REMARK   69  A    between atoms: _150  and  _152
REMARK   70  A    between atoms: _152  and  _153
REMARK   71  A    between atoms: _152  and  _155
REMARK   72  A    between atoms: _155  and  _156
REMARK   73  A    between atoms: _156  and  _157
REMARK   74  A    between atoms: _160  and  _162
REMARK   75  A    between atoms: _162  and  _163
REMARK   76  A    between atoms: _162  and  _165
REMARK   77  A    between atoms: _165  and  _166
REMARK   78  A    between atoms: _168  and  _170
REMARK   79  A    between atoms: _170  and  _171
REMARK   80  A    between atoms: _170  and  _173
REMARK   81  A    between atoms: _173  and  _174
REMARK   82  A    between atoms: _174  and  _175
REMARK   83  A    between atoms: _175  and  _176
REMARK   84  A    between atoms: _185  and  _187
REMARK   85  A    between atoms: _187  and  _188
REMARK   86  A    between atoms: _187  and  _190
REMARK   87  A    between atoms: _190  and  _191
REMARK   88  A    between atoms: _191  and  _192
REMARK   89  A    between atoms: _192  and  _193
REMARK   90  A    between atoms: _193  and  _194
REMARK   91  A    between atoms: _198  and  _200
REMARK   92  A    between atoms: _200  and  _201
REMARK   93  A    between atoms: _200  and  _203
REMARK   94  A    between atoms: _203  and  _204
REMARK   95  A    between atoms: _206  and  _208
REMARK   96  A    between atoms: _208  and  _209
REMARK   97  A    between atoms: _208  and  _211
REMARK   98  A    between atoms: _211  and  _212
REMARK   99  A    between atoms: _217  and  _218
REMARK  100  A    between atoms: _220  and  _222
REMARK  101  A    between atoms: _222  and  _223
REMARK  102  A    between atoms: _222  and  _225
REMARK  103  A    between atoms: _225  and  _226
REMARK  104  A    between atoms: _226  and  _227
REMARK  105  A    between atoms: _227  and  _228
REMARK  106  A    between atoms: _228  and  _229
REMARK  107  A    between atoms: _233  and  _235
REMARK  108  A    between atoms: _235  and  _236
REMARK  109  A    between atoms: _235  and  _238
REMARK  110  A    between atoms: _238  and  _239
REMARK  111  A    between atoms: _239  and  _240
REMARK  112  A    between atoms: _242  and  _244
REMARK  113  A    between atoms: _244  and  _245
REMARK  114  A    between atoms: _244  and  _247
REMARK  115  A    between atoms: _247  and  _248
REMARK  116  A    between atoms: _251  and  _253
REMARK  117  A    between atoms: _253  and  _254
REMARK  118  A    between atoms: _253  and  _256
REMARK  119  A    between atoms: _256  and  _257
REMARK  120  A    between atoms: _257  and  _258
REMARK  121  A    between atoms: _261  and  _263
REMARK  122  A    between atoms: _263  and  _264
REMARK  123  A    between atoms: _263  and  _266
REMARK  124  A    between atoms: _269  and  _271
REMARK  125  A    between atoms: _271  and  _272
REMARK  126  A    between atoms: _271  and  _274
REMARK  127  A    between atoms: _274  and  _275
REMARK  128  A    between atoms: _275  and  _276
REMARK  129  A    between atoms: _276  and  _277
REMARK  130  A    between atoms: _286  and  _288
REMARK  131  A    between atoms: _288  and  _289
REMARK  132  A    between atoms: _288  and  _291
REMARK  133  A    between atoms: _291  and  _292
REMARK  134  A    between atoms: _297  and  _299
REMARK  135  A    between atoms: _299  and  _300
REMARK  136  A    between atoms: _299  and  _302
REMARK  137  A    between atoms: _302  and  _303
REMARK                            x       y       z     vdW  Elec       q    Type
REMARK                         _______ _______ _______ _____ _____    ______ ____
ROOT
ATOM      1  CA  LYS A   1     -18.003  12.009 -28.306  0.00  0.00    +0.145 C 
ENDROOT
BRANCH   1   2
ATOM      2  C   LYS A   1     -16.687  11.742 -27.517  0.00  0.00    +0.238 C 
ATOM      3  O   LYS A   1     -16.227  12.613 -26.781  0.00  0.00    -0.274 OA
ATOM      4  N   LEU A   2     -16.086  10.548 -27.681  0.00  0.00    -0.298 N 
ATOM      5  H   LEU A   2     -16.560   9.836 -28.273  0.00  0.00    +0.150 HD
BRANCH   4   6
ATOM      6  CA  LEU A   2     -14.805  10.198 -27.072  0.00  0.00    +0.137 C 
BRANCH   6   7
ATOM      7  C   LEU A   2     -13.703  11.097 -27.657  0.00  0.00    +0.227 C 
ATOM      8  O   LEU A   2     -12.863  11.618 -26.917  0.00  0.00    -0.286 OA
ENDBRANCH   6   7
BRANCH   6   9
ATOM      9  CB  LEU A   2     -14.509   8.702 -27.287  0.00  0.00    +0.028 C 
BRANCH   9  10
ATOM     10  CG  LEU A   2     -13.316   8.080 -26.560  0.00  0.00    +0.002 C 
ATOM     11  CD2 LEU A   2     -13.452   8.230 -25.020  0.00  0.00    +0.000 C 
ATOM     12  CD1 LEU A   2     -13.188   6.574 -26.921  0.00  0.00    +0.000 C 
ENDBRANCH   9  10
ENDBRANCH   6   9
ENDBRANCH   4   6
ENDBRANCH   1   2
BRANCH   1  13
ATOM     13  N   LYS A   1     -17.911  11.426 -29.657  0.00  0.00    -0.238 NA
ATOM     14  H   LYS A   1     -18.594  10.681 -29.900  0.00  0.00    +0.142 HD
ENDBRANCH   1  13
BRANCH   1  15
ATOM     15  CB  LYS A   1     -19.213  11.392 -27.588  0.00  0.00    +0.026 C 
BRANCH  15  16
ATOM     16  CG  LYS A   1     -19.647  12.084 -26.327  0.00  0.00    -0.000 C 
BRANCH  16  17
ATOM     17  CD  LYS A   1     -21.075  11.650 -25.955  0.00  0.00    -0.024 C 
BRANCH  17  18
ATOM     18  CE  LYS A   1     -22.102  12.081 -27.005  0.00  0.00    -0.086 C 
BRANCH  18  19
ATOM     19  NZ  LYS A   1     -23.266  11.160 -27.092  0.00  0.00    +0.380 N 
ATOM     20  HZ1 LYS A   1     -23.749  11.126 -26.172  0.00  0.00    -0.089 HD
ATOM     21  HZ2 LYS A   1     -22.935  10.207 -27.346  0.00  0.00    -0.089 HD
ATOM     22  HZ3 LYS A   1     -23.925  11.504 -27.819  0.00  0.00    -0.089 HD
ENDBRANCH  18  19
ENDBRANCH  17  18
ENDBRANCH  16  17
ENDBRANCH  15  16
ENDBRANCH   1  15
TORSDOF 11
REMARK  Name = ../refined-set-2016/4ucc/4ucc_pocket.pdb
REMARK  137 active torsions:
REMARK  status: ('A' for Active; 'I' for Inactive)
REMARK    1  A    between atoms: _1  and  _3
REMARK    2  A    between atoms: _3  and  _4
REMARK    3  A    between atoms: _3  and  _6
REMARK    4  A    between atoms: _6  and  _7
REMARK    5  A    between atoms: _12  and  _14
REMARK    6  A    between atoms: _14  and  _15
REMARK    7  A    between atoms: _14  and  _17
REMARK    8  A    between atoms: _17  and  _18
REMARK    9  A    between atoms: _18  and  _19
REMARK   10  A    between atoms: _19  and  _20
REMARK   11  A    between atoms: _20  and  _21
REMARK   12  A    between atoms: _25  and  _27
REMARK   13  A    between atoms: _27  and  _28
REMARK   14  A    between atoms: _27  and  _30
REMARK   15  A    between atoms: _30  and  _31
REMARK   16  A    between atoms: _34  and  _36
REMARK   17  A    between atoms: _36  and  _37
REMARK   18  A    between atoms: _39  and  _41
REMARK   19  A    between atoms: _41  and  _42
REMARK   20  A    between atoms: _41  and  _44
REMARK   21  A    between atoms: _44  and  _45
REMARK   22  A    between atoms: _45  and  _46
REMARK   23  A    between atoms: _48  and  _50
REMARK   24  A    between atoms: _50  and  _51
REMARK   25  A    between atoms: _50  and  _53
REMARK   26  A    between atoms: _53  and  _54
REMARK   27  A    between atoms: _57  and  _59
REMARK   28  A    between atoms: _59  and  _60
REMARK   29  A    between atoms: _59  and  _62
REMARK   30  A    between atoms: _62  and  _63
REMARK   31  A    between atoms: _66  and  _68
REMARK   32  A    between atoms: _68  and  _69
REMARK   33  A    between atoms: _68  and  _71
REMARK   34  A    between atoms: _71  and  _72
REMARK   35  A    between atoms: _75  and  _77
REMARK   36  A    between atoms: _77  and  _78
REMARK   37  A    between atoms: _77  and  _80
REMARK   38  A    between atoms: _80  and  _81
REMARK   39  A    between atoms: _81  and  _82
REMARK   40  A    between atoms: _82  and  _83
REMARK   41  A    between atoms: _83  and  _84
REMARK   42  A    between atoms: _88  and  _90
REMARK   43  A    between atoms: _90  and  _91
REMARK   44  A    between atoms: _90  and  _93
REMARK   45  A    between atoms: _93  and  _94
REMARK   46  A    between atoms: _100  and  _102
REMARK   47  A    between atoms: _102  and  _103
REMARK   48  A    between atoms: _102  and  _105
REMARK   49  A    between atoms: _105  and  _106
REMARK   50  A    between atoms: _106  and  _107
REMARK   51  A    between atoms: _110  and  _112
REMARK   52  A    between atoms: _112  and  _113
REMARK   53  A    between atoms: _112  and  _115
REMARK   54  A    between atoms: _115  and  _116
REMARK   55  A    between atoms: _116  and  _117
REMARK   56  A    between atoms: _122  and  _124
REMARK   57  A    between atoms: _124  and  _125
REMARK   58  A    between atoms: _124  and  _127
REMARK   59  A    between atoms: _127  and  _128
REMARK   60  A    between atoms: _131  and  _133
REMARK   61  A    between atoms: _133  and  _134
REMARK   62  A    between atoms: _133  and  _136
REMARK   63  A    between atoms: _136  and  _137
REMARK   64  A    between atoms: _137  and  _138
REMARK   65  A    between atoms: _141  and  _143
REMARK   66  A    between atoms: _143  and  _144
REMARK   67  A    between atoms: _143  and  _146
REMARK   68  A    between atoms: _146  and  _147
REMARK   69  A    between atoms: _150  and  _152
REMARK   70  A    between atoms: _152  and  _153
REMARK   71  A    between atoms: _152  and  _155
REMARK   72  A    between atoms: _155  and  _156
REMARK   73  A    between atoms: _156  and  _157
REMARK   74  A    between atoms: _160  and  _162
REMARK   75  A    between atoms: _162  and  _163
REMARK   76  A    between atoms: _162  and  _165
REMARK   77  A    between atoms: _165  and  _166
REMARK   78  A    between atoms: _168  and  _170
REMARK   79  A    between atoms: _170  and  _171
REMARK   80  A    between atoms: _170  and  _173
REMARK   81  A    between atoms: _173  and  _174
REMARK   82  A    between atoms: _174  and  _175
REMARK   83  A    between atoms: _175  and  _176
REMARK   84  A    between atoms: _185  and  _187
REMARK   85  A    between atoms: _187  and  _188
REMARK   86  A    between atoms: _187  and  _190
REMARK   87  A    between atoms: _190  and  _191
REMARK   88  A    between atoms: _191  and  _192
REMARK   89  A    between atoms: _192  and  _193
REMARK   90  A    between atoms: _193  and  _194
REMARK   91  A    between atoms: _198  and  _200
REMARK   92  A    between atoms: _200  and  _201
REMARK   93  A    between atoms: _200  and  _203
REMARK   94  A    between atoms: _203  and  _204
REMARK   95  A    between atoms: _206  and  _208
REMARK   96  A    between atoms: _208  and  _209
REMARK   97  A    between atoms: _208  and  _211
REMARK   98  A    between atoms: _211  and  _212
REMARK   99  A    between atoms: _217  and  _218
REMARK  100  A    between atoms: _220  and  _222
REMARK  101  A    between atoms: _222  and  _223
REMARK  102  A    between atoms: _222  and  _225
REMARK  103  A    between atoms: _225  and  _226
REMARK  104  A    between atoms: _226  and  _227
REMARK  105  A    between atoms: _227  and  _228
REMARK  106  A    between atoms: _228  and  _229
REMARK  107  A    between atoms: _233  and  _235
REMARK  108  A    between atoms: _235  and  _236
REMARK  109  A    between atoms: _235  and  _238
REMARK  110  A    between atoms: _238  and  _239
REMARK  111  A    between atoms: _239  and  _240
REMARK  112  A    between atoms: _242  and  _244
REMARK  113  A    between atoms: _244  and  _245
REMARK  114  A    between atoms: _244  and  _247
REMARK  115  A    between atoms: _247  and  _248
REMARK  116  A    between atoms: _251  and  _253
REMARK  117  A    between atoms: _253  and  _254
REMARK  118  A    between atoms: _253  and  _256
REMARK  119  A    between atoms: _256  and  _257
REMARK  120  A    between atoms: _257  and  _258
REMARK  121  A    between atoms: _261  and  _263
REMARK  122  A    between atoms: _263  and  _264
REMARK  123  A    between atoms: _263  and  _266
REMARK  124  A    between atoms: _269  and  _271
REMARK  125  A    between atoms: _271  and  _272
REMARK  126  A    between atoms: _271  and  _274
REMARK  127  A    between atoms: _274  and  _275
REMARK  128  A    between atoms: _275  and  _276
REMARK  129  A    between atoms: _276  and  _277
REMARK  130  A    between atoms: _286  and  _288
REMARK  131  A    between atoms: _288  and  _289
REMARK  132  A    between atoms: _288  and  _291
REMARK  133  A    between atoms: _291  and  _292
REMARK  134  A    between atoms: _297  and  _299
REMARK  135  A    between atoms: _299  and  _300
REMARK  136  A    between atoms: _299  and  _302
REMARK  137  A    between atoms: _302  and  _303
REMARK                            x       y       z     vdW  Elec       q    Type
REMARK                         _______ _______ _______ _____ _____    ______ ____
ROOT
ATOM      1  CA  MET A   2     -13.847  14.578 -24.704  0.00  0.00    +0.149 C 
ENDROOT
BRANCH   1   3
ATOM      2  C   GLY A   1     -14.195  15.616 -26.900  0.00  0.00    +0.240 C 
ATOM      3  N   MET A   2     -14.295  14.550 -26.108  0.00  0.00    -0.297 N 
ATOM      4  H   MET A   2     -14.701  13.672 -26.491  0.00  0.00    +0.150 HD
ATOM      5  O   GLY A   1     -13.761  16.707 -26.508  0.00  0.00    -0.274 OA
BRANCH   2   6
ATOM      6  CA  GLY A   1     -14.601  15.417 -28.347  0.00  0.00    +0.169 C 
BRANCH   6   7
ATOM      7  N   GLY A   1     -14.265  14.096 -28.892  0.00  0.00    -0.236 NA
ATOM      8  H   GLY A   1     -15.039  13.468 -29.189  0.00  0.00    +0.142 HD
ENDBRANCH   6   7
ENDBRANCH   2   6
ENDBRANCH   1   3
BRANCH   1   9
ATOM      9  C   MET A   2     -12.357  14.865 -24.610  0.00  0.00    +0.241 C 
ATOM     10  O   MET A   2     -11.939  15.661 -23.765  0.00  0.00    -0.273 OA
ATOM     11  N   LEU A   3     -11.561  14.270 -25.493  0.00  0.00    -0.298 N 
ATOM     12  H   LEU A   3     -11.973  13.595 -26.168  0.00  0.00    +0.150 HD
BRANCH  11  13
ATOM     13  CA  LEU A   3     -10.109  14.538 -25.545  0.00  0.00    +0.137 C 
BRANCH  13  14
ATOM     14  C   LEU A   3      -9.835  15.967 -26.002  0.00  0.00    +0.227 C 
ATOM     15  O   LEU A   3      -9.001  16.652 -25.393  0.00  0.00    -0.286 OA
ENDBRANCH  13  14
BRANCH  13  16
ATOM     16  CB  LEU A   3      -9.375  13.519 -26.450  0.00  0.00    +0.028 C 
BRANCH  16  17
ATOM     17  CG  LEU A   3      -9.234  12.087 -25.895  0.00  0.00    +0.002 C 
ATOM     18  CD2 LEU A   3      -8.092  11.977 -24.891  0.00  0.00    +0.000 C 
ATOM     19  CD1 LEU A   3      -9.054  11.085 -27.022  0.00  0.00    +0.000 C 
ENDBRANCH  16  17
ENDBRANCH  13  16
ENDBRANCH  11  13
ENDBRANCH   1   9
BRANCH   1  20
ATOM     20  CB  MET A   2     -14.220  13.278 -23.957  0.00  0.00    +0.041 C 
BRANCH  20  21
ATOM     21  CG  MET A   2     -15.690  13.182 -23.677  0.00  0.00    +0.060 C 
BRANCH  21  22
ATOM     22  SD  MET A   2     -16.101  11.783 -22.616  0.00  0.00    -0.139 S 
ATOM     23  CE  MET A   2     -16.169  10.460 -23.724  0.00  0.00    +0.069 C 
ENDBRANCH  21  22
ENDBRANCH  20  21
ENDBRANCH   1  20
TORSDOF 11
REMARK  Name = ../refined-set-2016/4ucc/4ucc_pocket.pdb
REMARK  137 active torsions:
REMARK  status: ('A' for Active; 'I' for Inactive)
REMARK    1  A    between atoms: _1  and  _3
REMARK    2  A    between atoms: _3  and  _4
REMARK    3  A    between atoms: _3  and  _6
REMARK    4  A    between atoms: _6  and  _7
REMARK    5  A    between atoms: _12  and  _14
REMARK    6  A    between atoms: _14  and  _15
REMARK    7  A    between atoms: _14  and  _17
REMARK    8  A    between atoms: _17  and  _18
REMARK    9  A    between atoms: _18  and  _19
REMARK   10  A    between atoms: _19  and  _20
REMARK   11  A    between atoms: _20  and  _21
REMARK   12  A    between atoms: _25  and  _27
REMARK   13  A    between atoms: _27  and  _28
REMARK   14  A    between atoms: _27  and  _30
REMARK   15  A    between atoms: _30  and  _31
REMARK   16  A    between atoms: _34  and  _36
REMARK   17  A    between atoms: _36  and  _37
REMARK   18  A    between atoms: _39  and  _41
REMARK   19  A    between atoms: _41  and  _42
REMARK   20  A    between atoms: _41  and  _44
REMARK   21  A    between atoms: _44  and  _45
REMARK   22  A    between atoms: _45  and  _46
REMARK   23  A    between atoms: _48  and  _50
REMARK   24  A    between atoms: _50  and  _51
REMARK   25  A    between atoms: _50  and  _53
REMARK   26  A    between atoms: _53  and  _54
REMARK   27  A    between atoms: _57  and  _59
REMARK   28  A    between atoms: _59  and  _60
REMARK   29  A    between atoms: _59  and  _62
REMARK   30  A    between atoms: _62  and  _63
REMARK   31  A    between atoms: _66  and  _68
REMARK   32  A    between atoms: _68  and  _69
REMARK   33  A    between atoms: _68  and  _71
REMARK   34  A    between atoms: _71  and  _72
REMARK   35  A    between atoms: _75  and  _77
REMARK   36  A    between atoms: _77  and  _78
REMARK   37  A    between atoms: _77  and  _80
REMARK   38  A    between atoms: _80  and  _81
REMARK   39  A    between atoms: _81  and  _82
REMARK   40  A    between atoms: _82  and  _83
REMARK   41  A    between atoms: _83  and  _84
REMARK   42  A    between atoms: _88  and  _90
REMARK   43  A    between atoms: _90  and  _91
REMARK   44  A    between atoms: _90  and  _93
REMARK   45  A    between atoms: _93  and  _94
REMARK   46  A    between atoms: _100  and  _102
REMARK   47  A    between atoms: _102  and  _103
REMARK   48  A    between atoms: _102  and  _105
REMARK   49  A    between atoms: _105  and  _106
REMARK   50  A    between atoms: _106  and  _107
REMARK   51  A    between atoms: _110  and  _112
REMARK   52  A    between atoms: _112  and  _113
REMARK   53  A    between atoms: _112  and  _115
REMARK   54  A    between atoms: _115  and  _116
REMARK   55  A    between atoms: _116  and  _117
REMARK   56  A    between atoms: _122  and  _124
REMARK   57  A    between atoms: _124  and  _125
REMARK   58  A    between atoms: _124  and  _127
REMARK   59  A    between atoms: _127  and  _128
REMARK   60  A    between atoms: _131  and  _133
REMARK   61  A    between atoms: _133  and  _134
REMARK   62  A    between atoms: _133  and  _136
REMARK   63  A    between atoms: _136  and  _137
REMARK   64  A    between atoms: _137  and  _138
REMARK   65  A    between atoms: _141  and  _143
REMARK   66  A    between atoms: _143  and  _144
REMARK   67  A    between atoms: _143  and  _146
REMARK   68  A    between atoms: _146  and  _147
REMARK   69  A    between atoms: _150  and  _152
REMARK   70  A    between atoms: _152  and  _153
REMARK   71  A    between atoms: _152  and  _155
REMARK   72  A    between atoms: _155  and  _156
REMARK   73  A    between atoms: _156  and  _157
REMARK   74  A    between atoms: _160  and  _162
REMARK   75  A    between atoms: _162  and  _163
REMARK   76  A    between atoms: _162  and  _165
REMARK   77  A    between atoms: _165  and  _166
REMARK   78  A    between atoms: _168  and  _170
REMARK   79  A    between atoms: _170  and  _171
REMARK   80  A    between atoms: _170  and  _173
REMARK   81  A    between atoms: _173  and  _174
REMARK   82  A    between atoms: _174  and  _175
REMARK   83  A    between atoms: _175  and  _176
REMARK   84  A    between atoms: _185  and  _187
REMARK   85  A    between atoms: _187  and  _188
REMARK   86  A    between atoms: _187  and  _190
REMARK   87  A    between atoms: _190  and  _191
REMARK   88  A    between atoms: _191  and  _192
REMARK   89  A    between atoms: _192  and  _193
REMARK   90  A    between atoms: _193  and  _194
REMARK   91  A    between atoms: _198  and  _200
REMARK   92  A    between atoms: _200  and  _201
REMARK   93  A    between atoms: _200  and  _203
REMARK   94  A    between atoms: _203  and  _204
REMARK   95  A    between atoms: _206  and  _208
REMARK   96  A    between atoms: _208  and  _209
REMARK   97  A    between atoms: _208  and  _211
REMARK   98  A    between atoms: _211  and  _212
REMARK   99  A    between atoms: _217  and  _218
REMARK  100  A    between atoms: _220  and  _222
REMARK  101  A    between atoms: _222  and  _223
REMARK  102  A    between atoms: _222  and  _225
REMARK  103  A    between atoms: _225  and  _226
REMARK  104  A    between atoms: _226  and  _227
REMARK  105  A    between atoms: _227  and  _228
REMARK  106  A    between atoms: _228  and  _229
REMARK  107  A    between atoms: _233  and  _235
REMARK  108  A    between atoms: _235  and  _236
REMARK  109  A    between atoms: _235  and  _238
REMARK  110  A    between atoms: _238  and  _239
REMARK  111  A    between atoms: _239  and  _240
REMARK  112  A    between atoms: _242  and  _244
REMARK  113  A    between atoms: _244  and  _245
REMARK  114  A    between atoms: _244  and  _247
REMARK  115  A    between atoms: _247  and  _248
REMARK  116  A    between atoms: _251  and  _253
REMARK  117  A    between atoms: _253  and  _254
REMARK  118  A    between atoms: _253  and  _256
REMARK  119  A    between atoms: _256  and  _257
REMARK  120  A    between atoms: _257  and  _258
REMARK  121  A    between atoms: _261  and  _263
REMARK  122  A    between atoms: _263  and  _264
REMARK  123  A    between atoms: _263  and  _266
REMARK  124  A    between atoms: _269  and  _271
REMARK  125  A    between atoms: _271  and  _272
REMARK  126  A    between atoms: _271  and  _274
REMARK  127  A    between atoms: _274  and  _275
REMARK  128  A    between atoms: _275  and  _276
REMARK  129  A    between atoms: _276  and  _277
REMARK  130  A    between atoms: _286  and  _288
REMARK  131  A    between atoms: _288  and  _289
REMARK  132  A    between atoms: _288  and  _291
REMARK  133  A    between atoms: _291  and  _292
REMARK  134  A    between atoms: _297  and  _299
REMARK  135  A    between atoms: _299  and  _300
REMARK  136  A    between atoms: _299  and  _302
REMARK  137  A    between atoms: _302  and  _303
REMARK                            x       y       z     vdW  Elec       q    Type
REMARK                         _______ _______ _______ _____ _____    ______ ____
ROOT
ATOM      1  C   ILE A   1     -10.981  19.570 -23.369  0.00  0.00    +0.238 C 
ATOM      2  O   ILE A   1     -11.044  20.406 -22.465  0.00  0.00    -0.274 OA
ATOM      3  N   THR A   2     -10.153  18.513 -23.307  0.00  0.00    -0.296 N 
ATOM      4  H   THR A   2     -10.129  17.820 -24.082  0.00  0.00    +0.150 HD
ENDROOT
BRANCH   1   5
ATOM      5  CA  ILE A   1     -11.918  19.702 -24.594  0.00  0.00    +0.145 C 
BRANCH   5   6
ATOM      6  N   ILE A   1     -11.654  18.670 -25.608  0.00  0.00    -0.238 NA
ATOM      7  H   ILE A   1     -12.153  17.759 -25.564  0.00  0.00    +0.142 HD
ENDBRANCH   5   6
BRANCH   5   8
ATOM      8  CB  ILE A   1     -13.417  19.812 -24.168  0.00  0.00    +0.025 C 
ATOM      9  CG2 ILE A   1     -14.335  20.073 -25.353  0.00  0.00    +0.002 C 
BRANCH   8  10
ATOM     10  CG1 ILE A   1     -13.879  18.590 -23.328  0.00  0.00    +0.002 C 
ATOM     11  CD1 ILE A   1     -15.019  18.974 -22.314  0.00  0.00    +0.000 C 
ENDBRANCH   8  10
ENDBRANCH   5   8
ENDBRANCH   1   5
BRANCH   3  12
ATOM     12  CA  THR A   2      -9.283  18.345 -22.138  0.00  0.00    +0.164 C 
BRANCH  12  13
ATOM     13  CB  THR A   2      -8.965  16.876 -21.847  0.00  0.00    +0.136 C 
ATOM     14  CG2 THR A   2      -8.163  16.694 -20.547  0.00  0.00    +0.034 C 
BRANCH  13  15
ATOM     15  OG1 THR A   2     -10.182  16.141 -21.774  0.00  0.00    -0.382 OA
ATOM     16  HG1 THR A   2      -9.981  15.190 -21.586  0.00  0.00    +0.210 HD
ENDBRANCH  13  15
ENDBRANCH  12  13
BRANCH  12  17
ATOM     17  C   THR A   2      -8.021  19.193 -22.246  0.00  0.00    +0.229 C 
ATOM     18  O   THR A   2      -7.243  19.017 -23.186  0.00  0.00    -0.286 OA
ENDBRANCH  12  17
ENDBRANCH   3  12
TORSDOF 8
REMARK  Name = ../refined-set-2016/4ucc/4ucc_pocket.pdb
REMARK  137 active torsions:
REMARK  status: ('A' for Active; 'I' for Inactive)
REMARK    1  A    between atoms: _1  and  _3
REMARK    2  A    between atoms: _3  and  _4
REMARK    3  A    between atoms: _3  and  _6
REMARK    4  A    between atoms: _6  and  _7
REMARK    5  A    between atoms: _12  and  _14
REMARK    6  A    between atoms: _14  and  _15
REMARK    7  A    between atoms: _14  and  _17
REMARK    8  A    between atoms: _17  and  _18
REMARK    9  A    between atoms: _18  and  _19
REMARK   10  A    between atoms: _19  and  _20
REMARK   11  A    between atoms: _20  and  _21
REMARK   12  A    between atoms: _25  and  _27
REMARK   13  A    between atoms: _27  and  _28
REMARK   14  A    between atoms: _27  and  _30
REMARK   15  A    between atoms: _30  and  _31
REMARK   16  A    between atoms: _34  and  _36
REMARK   17  A    between atoms: _36  and  _37
REMARK   18  A    between atoms: _39  and  _41
REMARK   19  A    between atoms: _41  and  _42
REMARK   20  A    between atoms: _41  and  _44
REMARK   21  A    between atoms: _44  and  _45
REMARK   22  A    between atoms: _45  and  _46
REMARK   23  A    between atoms: _48  and  _50
REMARK   24  A    between atoms: _50  and  _51
REMARK   25  A    between atoms: _50  and  _53
REMARK   26  A    between atoms: _53  and  _54
REMARK   27  A    between atoms: _57  and  _59
REMARK   28  A    between atoms: _59  and  _60
REMARK   29  A    between atoms: _59  and  _62
REMARK   30  A    between atoms: _62  and  _63
REMARK   31  A    between atoms: _66  and  _68
REMARK   32  A    between atoms: _68  and  _69
REMARK   33  A    between atoms: _68  and  _71
REMARK   34  A    between atoms: _71  and  _72
REMARK   35  A    between atoms: _75  and  _77
REMARK   36  A    between atoms: _77  and  _78
REMARK   37  A    between atoms: _77  and  _80
REMARK   38  A    between atoms: _80  and  _81
REMARK   39  A    between atoms: _81  and  _82
REMARK   40  A    between atoms: _82  and  _83
REMARK   41  A    between atoms: _83  and  _84
REMARK   42  A    between atoms: _88  and  _90
REMARK   43  A    between atoms: _90  and  _91
REMARK   44  A    between atoms: _90  and  _93
REMARK   45  A    between atoms: _93  and  _94
REMARK   46  A    between atoms: _100  and  _102
REMARK   47  A    between atoms: _102  and  _103
REMARK   48  A    between atoms: _102  and  _105
REMARK   49  A    between atoms: _105  and  _106
REMARK   50  A    between atoms: _106  and  _107
REMARK   51  A    between atoms: _110  and  _112
REMARK   52  A    between atoms: _112  and  _113
REMARK   53  A    between atoms: _112  and  _115
REMARK   54  A    between atoms: _115  and  _116
REMARK   55  A    between atoms: _116  and  _117
REMARK   56  A    between atoms: _122  and  _124
REMARK   57  A    between atoms: _124  and  _125
REMARK   58  A    between atoms: _124  and  _127
REMARK   59  A    between atoms: _127  and  _128
REMARK   60  A    between atoms: _131  and  _133
REMARK   61  A    between atoms: _133  and  _134
REMARK   62  A    between atoms: _133  and  _136
REMARK   63  A    between atoms: _136  and  _137
REMARK   64  A    between atoms: _137  and  _138
REMARK   65  A    between atoms: _141  and  _143
REMARK   66  A    between atoms: _143  and  _144
REMARK   67  A    between atoms: _143  and  _146
REMARK   68  A    between atoms: _146  and  _147
REMARK   69  A    between atoms: _150  and  _152
REMARK   70  A    between atoms: _152  and  _153
REMARK   71  A    between atoms: _152  and  _155
REMARK   72  A    between atoms: _155  and  _156
REMARK   73  A    between atoms: _156  and  _157
REMARK   74  A    between atoms: _160  and  _162
REMARK   75  A    between atoms: _162  and  _163
REMARK   76  A    between atoms: _162  and  _165
REMARK   77  A    between atoms: _165  and  _166
REMARK   78  A    between atoms: _168  and  _170
REMARK   79  A    between atoms: _170  and  _171
REMARK   80  A    between atoms: _170  and  _173
REMARK   81  A    between atoms: _173  and  _174
REMARK   82  A    between atoms: _174  and  _175
REMARK   83  A    between atoms: _175  and  _176
REMARK   84  A    between atoms: _185  and  _187
REMARK   85  A    between atoms: _187  and  _188
REMARK   86  A    between atoms: _187  and  _190
REMARK   87  A    between atoms: _190  and  _191
REMARK   88  A    between atoms: _191  and  _192
REMARK   89  A    between atoms: _192  and  _193
REMARK   90  A    between atoms: _193  and  _194
REMARK   91  A    between atoms: _198  and  _200
REMARK   92  A    between atoms: _200  and  _201
REMARK   93  A    between atoms: _200  and  _203
REMARK   94  A    between atoms: _203  and  _204
REMARK   95  A    between atoms: _206  and  _208
REMARK   96  A    between atoms: _208  and  _209
REMARK   97  A    between atoms: _208  and  _211
REMARK   98  A    between atoms: _211  and  _212
REMARK   99  A    between atoms: _217  and  _218
REMARK  100  A    between atoms: _220  and  _222
REMARK  101  A    between atoms: _222  and  _223
REMARK  102  A    between atoms: _222  and  _225
REMARK  103  A    between atoms: _225  and  _226
REMARK  104  A    between atoms: _226  and  _227
REMARK  105  A    between atoms: _227  and  _228
REMARK  106  A    between atoms: _228  and  _229
REMARK  107  A    between atoms: _233  and  _235
REMARK  108  A    between atoms: _235  and  _236
REMARK  109  A    between atoms: _235  and  _238
REMARK  110  A    between atoms: _238  and  _239
REMARK  111  A    between atoms: _239  and  _240
REMARK  112  A    between atoms: _242  and  _244
REMARK  113  A    between atoms: _244  and  _245
REMARK  114  A    between atoms: _244  and  _247
REMARK  115  A    between atoms: _247  and  _248
REMARK  116  A    between atoms: _251  and  _253
REMARK  117  A    between atoms: _253  and  _254
REMARK  118  A    between atoms: _253  and  _256
REMARK  119  A    between atoms: _256  and  _257
REMARK  120  A    between atoms: _257  and  _258
REMARK  121  A    between atoms: _261  and  _263
REMARK  122  A    between atoms: _263  and  _264
REMARK  123  A    between atoms: _263  and  _266
REMARK  124  A    between atoms: _269  and  _271
REMARK  125  A    between atoms: _271  and  _272
REMARK  126  A    between atoms: _271  and  _274
REMARK  127  A    between atoms: _274  and  _275
REMARK  128  A    between atoms: _275  and  _276
REMARK  129  A    between atoms: _276  and  _277
REMARK  130  A    between atoms: _286  and  _288
REMARK  131  A    between atoms: _288  and  _289
REMARK  132  A    between atoms: _288  and  _291
REMARK  133  A    between atoms: _291  and  _292
REMARK  134  A    between atoms: _297  and  _299
REMARK  135  A    between atoms: _299  and  _300
REMARK  136  A    between atoms: _299  and  _302
REMARK  137  A    between atoms: _302  and  _303
REMARK                            x       y       z     vdW  Elec       q    Type
REMARK                         _______ _______ _______ _____ _____    ______ ____
ROOT
ATOM      1  CA  PHE A   2     -20.325   5.442 -17.346  0.00  0.00    +0.153 C 
ENDROOT
BRANCH   1   4
ATOM      2  C   LYS A   1     -21.767   5.876 -15.406  0.00  0.00    +0.238 C 
ATOM      3  O   LYS A   1     -21.854   7.075 -15.667  0.00  0.00    -0.274 OA
ATOM      4  N   PHE A   2     -21.062   5.020 -16.153  0.00  0.00    -0.297 N 
ATOM      5  H   PHE A   2     -21.036   4.018 -15.877  0.00  0.00    +0.150 HD
BRANCH   2   6
ATOM      6  CA  LYS A   1     -22.468   5.303 -14.180  0.00  0.00    +0.145 C 
BRANCH   6   7
ATOM      7  N   LYS A   1     -22.124   6.061 -12.975  0.00  0.00    -0.238 NA
ATOM      8  H   LYS A   1     -22.631   6.952 -12.803  0.00  0.00    +0.142 HD
ENDBRANCH   6   7
BRANCH   6   9
ATOM      9  CB  LYS A   1     -23.998   5.249 -14.383  0.00  0.00    +0.026 C 
BRANCH   9  10
ATOM     10  CG  LYS A   1     -24.687   4.133 -13.592  0.00  0.00    -0.000 C 
BRANCH  10  11
ATOM     11  CD  LYS A   1     -25.194   4.591 -12.219  0.00  0.00    -0.024 C 
BRANCH  11  12
ATOM     12  CE  LYS A   1     -25.833   3.468 -11.435  0.00  0.00    -0.086 C 
BRANCH  12  13
ATOM     13  NZ  LYS A   1     -26.452   3.954 -10.173  0.00  0.00    +0.380 N 
ATOM     14  HZ1 LYS A   1     -25.722   4.393  -9.577  0.00  0.00    -0.089 HD
ATOM     15  HZ2 LYS A   1     -26.879   3.152  -9.666  0.00  0.00    -0.089 HD
ATOM     16  HZ3 LYS A   1     -27.187   4.655 -10.396  0.00  0.00    -0.089 HD
ENDBRANCH  12  13
ENDBRANCH  11  12
ENDBRANCH  10  11
ENDBRANCH   9  10
ENDBRANCH   6   9
ENDBRANCH   2   6
ENDBRANCH   1   4
BRANCH   1  17
ATOM     17  C   PHE A   2     -20.691   4.594 -18.541  0.00  0.00    +0.241 C 
ATOM     18  O   PHE A   2     -20.761   3.371 -18.424  0.00  0.00    -0.273 OA
ATOM     19  N   GLU A   3     -20.878   5.230 -19.695  0.00  0.00    -0.298 N 
ATOM     20  H   GLU A   3     -20.851   6.269 -19.721  0.00  0.00    +0.150 HD
BRANCH  19  21
ATOM     21  CA  GLU A   3     -21.120   4.485 -20.921  0.00  0.00    +0.137 C 
BRANCH  21  22
ATOM     22  C   GLU A   3     -19.763   4.268 -21.583  0.00  0.00    +0.227 C 
ATOM     23  O   GLU A   3     -19.005   5.219 -21.813  0.00  0.00    -0.286 OA
ENDBRANCH  21  22
BRANCH  21  24
ATOM     24  CB  GLU A   3     -22.153   5.170 -21.833  0.00  0.00    +0.039 C 
BRANCH  24  25
ATOM     25  CG  GLU A   3     -23.578   4.947 -21.350  0.00  0.00    +0.116 C 
BRANCH  25  26
ATOM     26  CD  GLU A   3     -24.504   4.204 -22.298  0.00  0.00    +0.365 C 
ATOM     27  OE2 GLU A   3     -24.985   3.110 -21.920  0.00  0.00    -0.246 OA
ATOM     28  OE1 GLU A   3     -24.786   4.737 -23.398  0.00  0.00    -0.246 OA
ENDBRANCH  25  26
ENDBRANCH  24  25
ENDBRANCH  21  24
ENDBRANCH  19  21
ENDBRANCH   1  17
BRANCH   1  29
ATOM     29  CB  PHE A   2     -18.801   5.328 -17.136  0.00  0.00    +0.055 C 
BRANCH  29  30
ATOM     30  CG  PHE A   2     -18.213   6.248 -16.106  0.00  0.00    -0.020 A 
ATOM     31  CD2 PHE A   2     -18.156   5.875 -14.770  0.00  0.00    -0.004 A 
ATOM     32  CE2 PHE A   2     -17.613   6.733 -13.814  0.00  0.00    -0.000 A 
ATOM     33  CZ  PHE A   2     -17.098   7.948 -14.193  0.00  0.00    -0.000 A 
ATOM     34  CE1 PHE A   2     -17.122   8.319 -15.518  0.00  0.00    -0.000 A 
ATOM     35  CD1 PHE A   2     -17.667   7.466 -16.473  0.00  0.00    -0.004 A 
ENDBRANCH  29  30
ENDBRANCH   1  29
TORSDOF 16
REMARK  Name = ../refined-set-2016/4ucc/4ucc_pocket.pdb
REMARK  137 active torsions:
REMARK  status: ('A' for Active; 'I' for Inactive)
REMARK    1  A    between atoms: _1  and  _3
REMARK    2  A    between atoms: _3  and  _4
REMARK    3  A    between atoms: _3  and  _6
REMARK    4  A    between atoms: _6  and  _7
REMARK    5  A    between atoms: _12  and  _14
REMARK    6  A    between atoms: _14  and  _15
REMARK    7  A    between atoms: _14  and  _17
REMARK    8  A    between atoms: _17  and  _18
REMARK    9  A    between atoms: _18  and  _19
REMARK   10  A    between atoms: _19  and  _20
REMARK   11  A    between atoms: _20  and  _21
REMARK   12  A    between atoms: _25  and  _27
REMARK   13  A    between atoms: _27  and  _28
REMARK   14  A    between atoms: _27  and  _30
REMARK   15  A    between atoms: _30  and  _31
REMARK   16  A    between atoms: _34  and  _36
REMARK   17  A    between atoms: _36  and  _37
REMARK   18  A    between atoms: _39  and  _41
REMARK   19  A    between atoms: _41  and  _42
REMARK   20  A    between atoms: _41  and  _44
REMARK   21  A    between atoms: _44  and  _45
REMARK   22  A    between atoms: _45  and  _46
REMARK   23  A    between atoms: _48  and  _50
REMARK   24  A    between atoms: _50  and  _51
REMARK   25  A    between atoms: _50  and  _53
REMARK   26  A    between atoms: _53  and  _54
REMARK   27  A    between atoms: _57  and  _59
REMARK   28  A    between atoms: _59  and  _60
REMARK   29  A    between atoms: _59  and  _62
REMARK   30  A    between atoms: _62  and  _63
REMARK   31  A    between atoms: _66  and  _68
REMARK   32  A    between atoms: _68  and  _69
REMARK   33  A    between atoms: _68  and  _71
REMARK   34  A    between atoms: _71  and  _72
REMARK   35  A    between atoms: _75  and  _77
REMARK   36  A    between atoms: _77  and  _78
REMARK   37  A    between atoms: _77  and  _80
REMARK   38  A    between atoms: _80  and  _81
REMARK   39  A    between atoms: _81  and  _82
REMARK   40  A    between atoms: _82  and  _83
REMARK   41  A    between atoms: _83  and  _84
REMARK   42  A    between atoms: _88  and  _90
REMARK   43  A    between atoms: _90  and  _91
REMARK   44  A    between atoms: _90  and  _93
REMARK   45  A    between atoms: _93  and  _94
REMARK   46  A    between atoms: _100  and  _102
REMARK   47  A    between atoms: _102  and  _103
REMARK   48  A    between atoms: _102  and  _105
REMARK   49  A    between atoms: _105  and  _106
REMARK   50  A    between atoms: _106  and  _107
REMARK   51  A    between atoms: _110  and  _112
REMARK   52  A    between atoms: _112  and  _113
REMARK   53  A    between atoms: _112  and  _115
REMARK   54  A    between atoms: _115  and  _116
REMARK   55  A    between atoms: _116  and  _117
REMARK   56  A    between atoms: _122  and  _124
REMARK   57  A    between atoms: _124  and  _125
REMARK   58  A    between atoms: _124  and  _127
REMARK   59  A    between atoms: _127  and  _128
REMARK   60  A    between atoms: _131  and  _133
REMARK   61  A    between atoms: _133  and  _134
REMARK   62  A    between atoms: _133  and  _136
REMARK   63  A    between atoms: _136  and  _137
REMARK   64  A    between atoms: _137  and  _138
REMARK   65  A    between atoms: _141  and  _143
REMARK   66  A    between atoms: _143  and  _144
REMARK   67  A    between atoms: _143  and  _146
REMARK   68  A    between atoms: _146  and  _147
REMARK   69  A    between atoms: _150  and  _152
REMARK   70  A    between atoms: _152  and  _153
REMARK   71  A    between atoms: _152  and  _155
REMARK   72  A    between atoms: _155  and  _156
REMARK   73  A    between atoms: _156  and  _157
REMARK   74  A    between atoms: _160  and  _162
REMARK   75  A    between atoms: _162  and  _163
REMARK   76  A    between atoms: _162  and  _165
REMARK   77  A    between atoms: _165  and  _166
REMARK   78  A    between atoms: _168  and  _170
REMARK   79  A    between atoms: _170  and  _171
REMARK   80  A    between atoms: _170  and  _173
REMARK   81  A    between atoms: _173  and  _174
REMARK   82  A    between atoms: _174  and  _175
REMARK   83  A    between atoms: _175  and  _176
REMARK   84  A    between atoms: _185  and  _187
REMARK   85  A    between atoms: _187  and  _188
REMARK   86  A    between atoms: _187  and  _190
REMARK   87  A    between atoms: _190  and  _191
REMARK   88  A    between atoms: _191  and  _192
REMARK   89  A    between atoms: _192  and  _193
REMARK   90  A    between atoms: _193  and  _194
REMARK   91  A    between atoms: _198  and  _200
REMARK   92  A    between atoms: _200  and  _201
REMARK   93  A    between atoms: _200  and  _203
REMARK   94  A    between atoms: _203  and  _204
REMARK   95  A    between atoms: _206  and  _208
REMARK   96  A    between atoms: _208  and  _209
REMARK   97  A    between atoms: _208  and  _211
REMARK   98  A    between atoms: _211  and  _212
REMARK   99  A    between atoms: _217  and  _218
REMARK  100  A    between atoms: _220  and  _222
REMARK  101  A    between atoms: _222  and  _223
REMARK  102  A    between atoms: _222  and  _225
REMARK  103  A    between atoms: _225  and  _226
REMARK  104  A    between atoms: _226  and  _227
REMARK  105  A    between atoms: _227  and  _228
REMARK  106  A    between atoms: _228  and  _229
REMARK  107  A    between atoms: _233  and  _235
REMARK  108  A    between atoms: _235  and  _236
REMARK  109  A    between atoms: _235  and  _238
REMARK  110  A    between atoms: _238  and  _239
REMARK  111  A    between atoms: _239  and  _240
REMARK  112  A    between atoms: _242  and  _244
REMARK  113  A    between atoms: _244  and  _245
REMARK  114  A    between atoms: _244  and  _247
REMARK  115  A    between atoms: _247  and  _248
REMARK  116  A    between atoms: _251  and  _253
REMARK  117  A    between atoms: _253  and  _254
REMARK  118  A    between atoms: _253  and  _256
REMARK  119  A    between atoms: _256  and  _257
REMARK  120  A    between atoms: _257  and  _258
REMARK  121  A    between atoms: _261  and  _263
REMARK  122  A    between atoms: _263  and  _264
REMARK  123  A    between atoms: _263  and  _266
REMARK  124  A    between atoms: _269  and  _271
REMARK  125  A    between atoms: _271  and  _272
REMARK  126  A    between atoms: _271  and  _274
REMARK  127  A    between atoms: _274  and  _275
REMARK  128  A    between atoms: _275  and  _276
REMARK  129  A    between atoms: _276  and  _277
REMARK  130  A    between atoms: _286  and  _288
REMARK  131  A    between atoms: _288  and  _289
REMARK  132  A    between atoms: _288  and  _291
REMARK  133  A    between atoms: _291  and  _292
REMARK  134  A    between atoms: _297  and  _299
REMARK  135  A    between atoms: _299  and  _300
REMARK  136  A    between atoms: _299  and  _302
REMARK  137  A    between atoms: _302  and  _303
REMARK                            x       y       z     vdW  Elec       q    Type
REMARK                         _______ _______ _______ _____ _____    ______ ____
ROOT
ATOM      1  CB  GLN A   1     -13.174   4.191 -21.868  0.00  0.00    +0.035 C 
ENDROOT
BRANCH   1   2
ATOM      2  CA  GLN A   1     -12.155   5.197 -21.332  0.00  0.00    +0.134 C 
BRANCH   2   3
ATOM      3  N   GLN A   1     -10.966   4.503 -20.824  0.00  0.00    -0.239 NA
ATOM      4  H   GLN A   1     -10.967   3.463 -20.841  0.00  0.00    +0.142 HD
ENDBRANCH   2   3
BRANCH   2   5
ATOM      5  C   GLN A   1     -12.788   6.038 -20.248  0.00  0.00    +0.224 C 
ATOM      6  O   GLN A   1     -13.074   7.209 -20.484  0.00  0.00    -0.287 OA
ENDBRANCH   2   5
ENDBRANCH   1   2
BRANCH   1   7
ATOM      7  CG  GLN A   1     -12.729   3.486 -23.133  0.00  0.00    +0.087 C 
BRANCH   7   8
ATOM      8  CD  GLN A   1     -13.775   2.515 -23.602  0.00  0.00    +0.219 C 
ATOM      9  NE2 GLN A   1     -13.437   1.244 -23.624  0.00  0.00    -0.329 N 
ATOM     10 HE21 GLN A   1     -12.476   0.957 -23.349  0.00  0.00    +0.145 HD
ATOM     11 HE22 GLN A   1     -14.131   0.526 -23.917  0.00  0.00    +0.145 HD
ATOM     12  OE1 GLN A   1     -14.903   2.895 -23.921  0.00  0.00    -0.275 OA
ENDBRANCH   7   8
ENDBRANCH   1   7
TORSDOF 5
REMARK  Name = ../refined-set-2016/4ucc/4ucc_pocket.pdb
REMARK  137 active torsions:
REMARK  status: ('A' for Active; 'I' for Inactive)
REMARK    1  A    between atoms: _1  and  _3
REMARK    2  A    between atoms: _3  and  _4
REMARK    3  A    between atoms: _3  and  _6
REMARK    4  A    between atoms: _6  and  _7
REMARK    5  A    between atoms: _12  and  _14
REMARK    6  A    between atoms: _14  and  _15
REMARK    7  A    between atoms: _14  and  _17
REMARK    8  A    between atoms: _17  and  _18
REMARK    9  A    between atoms: _18  and  _19
REMARK   10  A    between atoms: _19  and  _20
REMARK   11  A    between atoms: _20  and  _21
REMARK   12  A    between atoms: _25  and  _27
REMARK   13  A    between atoms: _27  and  _28
REMARK   14  A    between atoms: _27  and  _30
REMARK   15  A    between atoms: _30  and  _31
REMARK   16  A    between atoms: _34  and  _36
REMARK   17  A    between atoms: _36  and  _37
REMARK   18  A    between atoms: _39  and  _41
REMARK   19  A    between atoms: _41  and  _42
REMARK   20  A    between atoms: _41  and  _44
REMARK   21  A    between atoms: _44  and  _45
REMARK   22  A    between atoms: _45  and  _46
REMARK   23  A    between atoms: _48  and  _50
REMARK   24  A    between atoms: _50  and  _51
REMARK   25  A    between atoms: _50  and  _53
REMARK   26  A    between atoms: _53  and  _54
REMARK   27  A    between atoms: _57  and  _59
REMARK   28  A    between atoms: _59  and  _60
REMARK   29  A    between atoms: _59  and  _62
REMARK   30  A    between atoms: _62  and  _63
REMARK   31  A    between atoms: _66  and  _68
REMARK   32  A    between atoms: _68  and  _69
REMARK   33  A    between atoms: _68  and  _71
REMARK   34  A    between atoms: _71  and  _72
REMARK   35  A    between atoms: _75  and  _77
REMARK   36  A    between atoms: _77  and  _78
REMARK   37  A    between atoms: _77  and  _80
REMARK   38  A    between atoms: _80  and  _81
REMARK   39  A    between atoms: _81  and  _82
REMARK   40  A    between atoms: _82  and  _83
REMARK   41  A    between atoms: _83  and  _84
REMARK   42  A    between atoms: _88  and  _90
REMARK   43  A    between atoms: _90  and  _91
REMARK   44  A    between atoms: _90  and  _93
REMARK   45  A    between atoms: _93  and  _94
REMARK   46  A    between atoms: _100  and  _102
REMARK   47  A    between atoms: _102  and  _103
REMARK   48  A    between atoms: _102  and  _105
REMARK   49  A    between atoms: _105  and  _106
REMARK   50  A    between atoms: _106  and  _107
REMARK   51  A    between atoms: _110  and  _112
REMARK   52  A    between atoms: _112  and  _113
REMARK   53  A    between atoms: _112  and  _115
REMARK   54  A    between atoms: _115  and  _116
REMARK   55  A    between atoms: _116  and  _117
REMARK   56  A    between atoms: _122  and  _124
REMARK   57  A    between atoms: _124  and  _125
REMARK   58  A    between atoms: _124  and  _127
REMARK   59  A    between atoms: _127  and  _128
REMARK   60  A    between atoms: _131  and  _133
REMARK   61  A    between atoms: _133  and  _134
REMARK   62  A    between atoms: _133  and  _136
REMARK   63  A    between atoms: _136  and  _137
REMARK   64  A    between atoms: _137  and  _138
REMARK   65  A    between atoms: _141  and  _143
REMARK   66  A    between atoms: _143  and  _144
REMARK   67  A    between atoms: _143  and  _146
REMARK   68  A    between atoms: _146  and  _147
REMARK   69  A    between atoms: _150  and  _152
REMARK   70  A    between atoms: _152  and  _153
REMARK   71  A    between atoms: _152  and  _155
REMARK   72  A    between atoms: _155  and  _156
REMARK   73  A    between atoms: _156  and  _157
REMARK   74  A    between atoms: _160  and  _162
REMARK   75  A    between atoms: _162  and  _163
REMARK   76  A    between atoms: _162  and  _165
REMARK   77  A    between atoms: _165  and  _166
REMARK   78  A    between atoms: _168  and  _170
REMARK   79  A    between atoms: _170  and  _171
REMARK   80  A    between atoms: _170  and  _173
REMARK   81  A    between atoms: _173  and  _174
REMARK   82  A    between atoms: _174  and  _175
REMARK   83  A    between atoms: _175  and  _176
REMARK   84  A    between atoms: _185  and  _187
REMARK   85  A    between atoms: _187  and  _188
REMARK   86  A    between atoms: _187  and  _190
REMARK   87  A    between atoms: _190  and  _191
REMARK   88  A    between atoms: _191  and  _192
REMARK   89  A    between atoms: _192  and  _193
REMARK   90  A    between atoms: _193  and  _194
REMARK   91  A    between atoms: _198  and  _200
REMARK   92  A    between atoms: _200  and  _201
REMARK   93  A    between atoms: _200  and  _203
REMARK   94  A    between atoms: _203  and  _204
REMARK   95  A    between atoms: _206  and  _208
REMARK   96  A    between atoms: _208  and  _209
REMARK   97  A    between atoms: _208  and  _211
REMARK   98  A    between atoms: _211  and  _212
REMARK   99  A    between atoms: _217  and  _218
REMARK  100  A    between atoms: _220  and  _222
REMARK  101  A    between atoms: _222  and  _223
REMARK  102  A    between atoms: _222  and  _225
REMARK  103  A    between atoms: _225  and  _226
REMARK  104  A    between atoms: _226  and  _227
REMARK  105  A    between atoms: _227  and  _228
REMARK  106  A    between atoms: _228  and  _229
REMARK  107  A    between atoms: _233  and  _235
REMARK  108  A    between atoms: _235  and  _236
REMARK  109  A    between atoms: _235  and  _238
REMARK  110  A    between atoms: _238  and  _239
REMARK  111  A    between atoms: _239  and  _240
REMARK  112  A    between atoms: _242  and  _244
REMARK  113  A    between atoms: _244  and  _245
REMARK  114  A    between atoms: _244  and  _247
REMARK  115  A    between atoms: _247  and  _248
REMARK  116  A    between atoms: _251  and  _253
REMARK  117  A    between atoms: _253  and  _254
REMARK  118  A    between atoms: _253  and  _256
REMARK  119  A    between atoms: _256  and  _257
REMARK  120  A    between atoms: _257  and  _258
REMARK  121  A    between atoms: _261  and  _263
REMARK  122  A    between atoms: _263  and  _264
REMARK  123  A    between atoms: _263  and  _266
REMARK  124  A    between atoms: _269  and  _271
REMARK  125  A    between atoms: _271  and  _272
REMARK  126  A    between atoms: _271  and  _274
REMARK  127  A    between atoms: _274  and  _275
REMARK  128  A    between atoms: _275  and  _276
REMARK  129  A    between atoms: _276  and  _277
REMARK  130  A    between atoms: _286  and  _288
REMARK  131  A    between atoms: _288  and  _289
REMARK  132  A    between atoms: _288  and  _291
REMARK  133  A    between atoms: _291  and  _292
REMARK  134  A    between atoms: _297  and  _299
REMARK  135  A    between atoms: _299  and  _300
REMARK  136  A    between atoms: _299  and  _302
REMARK  137  A    between atoms: _302  and  _303
REMARK                            x       y       z     vdW  Elec       q    Type
REMARK                         _______ _______ _______ _____ _____    ______ ____
ROOT
ATOM      1  CA  ARG A   6     -15.577  16.555 -17.101  0.00  0.00    +0.149 C 
ENDROOT
BRANCH   1   2
ATOM      2  C   ARG A   6     -14.943  17.612 -16.194  0.00  0.00    +0.241 C 
ATOM      3  N   LYS A   7     -13.659  17.413 -15.782  0.00  0.00    -0.297 N 
ATOM      4  H   LYS A   7     -13.190  16.522 -16.042  0.00  0.00    +0.150 HD
ATOM      5  O   ARG A   6     -15.604  18.610 -15.896  0.00  0.00    -0.273 OA
BRANCH   3   6
ATOM      6  CA  LYS A   7     -12.897  18.400 -14.984  0.00  0.00    +0.149 C 
BRANCH   6   7
ATOM      7  C   LYS A   7     -12.638  19.664 -15.856  0.00  0.00    +0.241 C 
ATOM      8  O   LYS A   7     -12.759  20.766 -15.355  0.00  0.00    -0.273 OA
ATOM      9  N   SER A   8     -12.255  19.487 -17.134  0.00  0.00    -0.295 N 
ATOM     10  H   SER A   8     -12.118  18.519 -17.487  0.00  0.00    +0.150 HD
BRANCH   9  11
ATOM     11  CA  SER A   8     -12.024  20.615 -18.048  0.00  0.00    +0.178 C 
BRANCH  11  12
ATOM     12  C   SER A   8     -13.354  21.336 -18.365  0.00  0.00    +0.243 C 
ATOM     13  O   SER A   8     -13.381  22.561 -18.435  0.00  0.00    -0.273 OA
ATOM     14  N   TYR A   9     -14.459  20.567 -18.464  0.00  0.00    -0.297 N 
ATOM     15  H   TYR A   9     -14.377  19.538 -18.334  0.00  0.00    +0.150 HD
BRANCH  14  16
ATOM     16  CA  TYR A   9     -15.772  21.152 -18.751  0.00  0.00    +0.153 C 
BRANCH  16  17
ATOM     17  C   TYR A   9     -16.244  22.028 -17.602  0.00  0.00    +0.241 C 
ATOM     18  N   LYS A  10     -16.046  21.606 -16.344  0.00  0.00    -0.298 N 
ATOM     19  H   LYS A  10     -15.584  20.688 -16.183  0.00  0.00    +0.150 HD
ATOM     20  O   TYR A   9     -16.780  23.089 -17.860  0.00  0.00    -0.273 OA
BRANCH  18  21
ATOM     21  CA  LYS A  10     -16.464  22.405 -15.195  0.00  0.00    +0.137 C 
BRANCH  21  22
ATOM     22  C   LYS A  10     -15.682  23.731 -15.128  0.00  0.00    +0.227 C 
ATOM     23  O   LYS A  10     -16.241  24.780 -14.774  0.00  0.00    -0.286 OA
ENDBRANCH  21  22
BRANCH  21  24
ATOM     24  CB  LYS A  10     -16.349  21.601 -13.881  0.00  0.00    +0.028 C 
BRANCH  24  25
ATOM     25  CG  LYS A  10     -17.057  22.290 -12.692  0.00  0.00    -0.000 C 
BRANCH  25  26
ATOM     26  CD  LYS A  10     -16.885  21.506 -11.374  0.00  0.00    -0.024 C 
BRANCH  26  27
ATOM     27  CE  LYS A  10     -16.709  22.458 -10.202  0.00  0.00    -0.086 C 
BRANCH  27  28
ATOM     28  NZ  LYS A  10     -16.642  21.745  -8.885  0.00  0.00    +0.380 N 
ATOM     29  HZ1 LYS A  10     -16.522  22.441  -8.121  0.00  0.00    -0.089 HD
ATOM     30  HZ2 LYS A  10     -17.523  21.213  -8.735  0.00  0.00    -0.089 HD
ATOM     31  HZ3 LYS A  10     -15.835  21.089  -8.888  0.00  0.00    -0.089 HD
ENDBRANCH  27  28
ENDBRANCH  26  27
ENDBRANCH  25  26
ENDBRANCH  24  25
ENDBRANCH  21  24
ENDBRANCH  18  21
ENDBRANCH  16  17
BRANCH  16  32
ATOM     32  CB  TYR A   9     -16.800  20.049 -19.056  0.00  0.00    +0.055 C 
BRANCH  32  33
ATOM     33  CG  TYR A   9     -18.150  20.590 -19.450  0.00  0.00    -0.020 A 
ATOM     34  CD2 TYR A   9     -19.165  20.742 -18.508  0.00  0.00    -0.001 A 
ATOM     35  CE2 TYR A   9     -20.417  21.248 -18.867  0.00  0.00    +0.036 A 
ATOM     36  CZ  TYR A   9     -20.667  21.588 -20.183  0.00  0.00    +0.134 A 
ATOM     37  CE1 TYR A   9     -19.673  21.447 -21.137  0.00  0.00    +0.036 A 
ATOM     38  CD1 TYR A   9     -18.428  20.930 -20.769  0.00  0.00    -0.001 A 
BRANCH  36  39
ATOM     39  OH  TYR A   9     -21.907  22.034 -20.542  0.00  0.00    -0.506 OA
ATOM     40  HH  TYR A   9     -22.579  21.336 -20.340  0.00  0.00    +0.292 HD
ENDBRANCH  36  39
ENDBRANCH  32  33
ENDBRANCH  16  32
ENDBRANCH  14  16
ENDBRANCH  11  12
BRANCH  11  41
ATOM     41  CB  SER A   8     -11.326  20.158 -19.326  0.00  0.00    +0.166 C 
BRANCH  41  42
ATOM     42  OG  SER A   8      -9.933  20.012 -19.092  0.00  0.00    -0.380 OA
ATOM     43  H   SER A   8      -9.788  19.338 -18.382  0.00  0.00    +0.211 HD
ENDBRANCH  41  42
ENDBRANCH  11  41
ENDBRANCH   9  11
ENDBRANCH   6   7
BRANCH   6  44
ATOM     44  CB  LYS A   7     -11.535  17.840 -14.530  0.00  0.00    +0.029 C 
BRANCH  44  45
ATOM     45  CG  LYS A   7     -11.591  16.822 -13.406  0.00  0.00    +0.000 C 
BRANCH  45  46
ATOM     46  CD  LYS A   7     -10.155  16.489 -12.936  0.00  0.00    -0.024 C 
BRANCH  46  47
ATOM     47  CE  LYS A   7     -10.056  15.173 -12.203  0.00  0.00    -0.086 C 
BRANCH  47  48
ATOM     48  NZ  LYS A   7      -8.643  14.831 -11.892  0.00  0.00    +0.380 N 
ATOM     49  HZ1 LYS A   7      -8.231  15.575 -11.293  0.00  0.00    -0.089 HD
ATOM     50  HZ2 LYS A   7      -8.610  13.922 -11.389  0.00  0.00    -0.089 HD
ATOM     51  HZ3 LYS A   7      -8.102  14.758 -12.777  0.00  0.00    -0.089 HD
ENDBRANCH  47  48
ENDBRANCH  46  47
ENDBRANCH  45  46
ENDBRANCH  44  45
ENDBRANCH   6  44
ENDBRANCH   3   6
ENDBRANCH   1   2
BRANCH   1  53
ATOM     52  C   SER A   5     -13.906  16.604 -18.919  0.00  0.00    +0.243 C 
ATOM     53  N   ARG A   6     -14.569  15.933 -17.968  0.00  0.00    -0.297 N 
ATOM     54  H   ARG A   6     -14.360  14.923 -17.838  0.00  0.00    +0.150 HD
ATOM     55  O   SER A   5     -14.082  17.803 -19.143  0.00  0.00    -0.273 OA
BRANCH  52  56
ATOM     56  CA  SER A   5     -12.856  15.834 -19.723  0.00  0.00    +0.178 C 
BRANCH  56  59
ATOM     57  C   GLU A   4     -11.224  15.398 -17.927  0.00  0.00    +0.241 C 
ATOM     58  O   GLU A   4     -11.066  16.595 -17.675  0.00  0.00    -0.273 OA
ATOM     59  N   SER A   5     -12.062  14.943 -18.877  0.00  0.00    -0.295 N 
ATOM     60  H   SER A   5     -12.149  13.916 -19.015  0.00  0.00    +0.150 HD
BRANCH  57  61
ATOM     61  CA  GLU A   4     -10.476  14.342 -17.081  0.00  0.00    +0.149 C 
BRANCH  61  64
ATOM     62  C   ILE A   3     -12.503  13.306 -16.077  0.00  0.00    +0.241 C 
ATOM     63  O   ILE A   3     -12.950  14.360 -15.682  0.00  0.00    -0.273 OA
ATOM     64  N   GLU A   4     -11.333  13.201 -16.743  0.00  0.00    -0.297 N 
ATOM     65  H   GLU A   4     -11.020  12.253 -17.034  0.00  0.00    +0.150 HD
BRANCH  62  66
ATOM     66  CA  ILE A   3     -13.290  12.013 -15.798  0.00  0.00    +0.149 C 
BRANCH  66  68
ATOM     67  C   GLU A   2     -14.254  11.843 -18.098  0.00  0.00    +0.241 C 
ATOM     68  N   ILE A   3     -13.586  11.300 -17.064  0.00  0.00    -0.297 N 
ATOM     69  H   ILE A   3     -13.256  10.318 -17.159  0.00  0.00    +0.150 HD
ATOM     70  O   GLU A   2     -14.700  12.980 -18.086  0.00  0.00    -0.273 OA
BRANCH  67  71
ATOM     71  CA  GLU A   2     -14.452  10.988 -19.358  0.00  0.00    +0.149 C 
BRANCH  71  73
ATOM     72  C   ILE A   1     -12.088  10.935 -20.075  0.00  0.00    +0.238 C 
ATOM     73  N   GLU A   2     -13.220  10.263 -19.721  0.00  0.00    -0.297 N 
ATOM     74  H   GLU A   2     -13.215   9.223 -19.707  0.00  0.00    +0.150 HD
ATOM     75  O   ILE A   1     -12.022  12.170 -20.097  0.00  0.00    -0.274 OA
BRANCH  72  76
ATOM     76  CA  ILE A   1     -10.808  10.091 -20.409  0.00  0.00    +0.145 C 
BRANCH  76  77
ATOM     77  CB  ILE A   1     -10.840   9.500 -21.852  0.00  0.00    +0.025 C 
ATOM     78  CG2 ILE A   1     -11.420  10.533 -22.855  0.00  0.00    +0.002 C 
BRANCH  77  79
ATOM     79  CG1 ILE A   1      -9.420   9.013 -22.259  0.00  0.00    +0.002 C 
ATOM     80  CD1 ILE A   1      -9.339   8.171 -23.562  0.00  0.00    +0.000 C 
ENDBRANCH  77  79
ENDBRANCH  76  77
BRANCH  76  81
ATOM     81  N   ILE A   1     -10.657   9.040 -19.395  0.00  0.00    -0.238 NA
ATOM     82  H   ILE A   1     -10.721   8.040 -19.673  0.00  0.00    +0.142 HD
ENDBRANCH  76  81
ENDBRANCH  72  76
ENDBRANCH  71  73
BRANCH  71  83
ATOM     83  CB  GLU A   2     -15.665  10.067 -19.224  0.00  0.00    +0.041 C 
BRANCH  83  84
ATOM     84  CG  GLU A   2     -16.944  10.783 -18.797  0.00  0.00    +0.116 C 
BRANCH  84  85
ATOM     85  CD  GLU A   2     -18.184   9.908 -18.792  0.00  0.00    +0.365 C 
ATOM     86  OE2 GLU A   2     -19.087  10.096 -17.942  0.00  0.00    -0.246 OA
ATOM     87  OE1 GLU A   2     -18.307   9.109 -19.741  0.00  0.00    -0.246 OA
ENDBRANCH  84  85
ENDBRANCH  83  84
ENDBRANCH  71  83
ENDBRANCH  67  71
ENDBRANCH  66  68
BRANCH  66  88
ATOM     88  CB  ILE A   3     -12.571  11.115 -14.751  0.00  0.00    +0.027 C 
ATOM     89  CG2 ILE A   3     -12.094  11.941 -13.519  0.00  0.00    +0.002 C 
BRANCH  88  90
ATOM     90  CG1 ILE A   3     -13.507   9.948 -14.327  0.00  0.00    +0.002 C 
ATOM     91  CD1 ILE A   3     -12.822   8.805 -13.444  0.00  0.00    +0.000 C 
ENDBRANCH  88  90
ENDBRANCH  66  88
ENDBRANCH  62  66
ENDBRANCH  61  64
BRANCH  61  92
ATOM     92  CB  GLU A   4      -9.172  13.879 -17.744  0.00  0.00    +0.041 C 
BRANCH  92  93
ATOM     93  CG  GLU A   4      -8.238  13.107 -16.815  0.00  0.00    +0.116 C 
BRANCH  93  94
ATOM     94  CD  GLU A   4      -7.885  13.734 -15.474  0.00  0.00    +0.365 C 
ATOM     95  OE2 GLU A   4      -7.819  12.982 -14.474  0.00  0.00    -0.246 OA
ATOM     96  OE1 GLU A   4      -7.649  14.966 -15.423  0.00  0.00    -0.246 OA
ENDBRANCH  93  94
ENDBRANCH  92  93
ENDBRANCH  61  92
ENDBRANCH  57  61
ENDBRANCH  56  59
BRANCH  56  97
ATOM     97  CB  SER A   5     -13.467  15.091 -20.911  0.00  0.00    +0.166 C 
BRANCH  97  98
ATOM     98  OG  SER A   5     -14.702  14.451 -20.633  0.00  0.00    -0.380 OA
ATOM     99  H   SER A   5     -14.572  13.785 -19.912  0.00  0.00    +0.211 HD
ENDBRANCH  97  98
ENDBRANCH  56  97
ENDBRANCH  52  56
ENDBRANCH   1  53
BRANCH   1 100
ATOM    100  CB  ARG A   6     -16.309  15.513 -16.258  0.00  0.00    +0.033 C 
BRANCH 100 101
ATOM    101  CG  ARG A   6     -17.355  14.728 -17.052  0.00  0.00    +0.045 C 
BRANCH 101 102
ATOM    102  CD  ARG A   6     -18.013  13.732 -16.122  0.00  0.00    +0.174 C 
BRANCH 102 103
ATOM    103  NE  ARG A   6     -19.023  12.927 -16.803  0.00  0.00    -0.265 N 
ATOM    104  CZ  ARG A   6     -20.306  13.255 -16.914  0.00  0.00    +0.342 C 
ATOM    105  NH2 ARG A   6     -20.766  14.377 -16.365  0.00  0.00    -0.292 N 
ATOM    106 HH21 ARG A   6     -20.120  15.004 -15.845  0.00  0.00    +0.255 HD
ATOM    107 HH22 ARG A   6     -21.771  14.626 -16.456  0.00  0.00    +0.255 HD
ATOM    108  NH1 ARG A   6     -21.140  12.468 -17.578  0.00  0.00    -0.292 N 
ATOM    109 HH11 ARG A   6     -22.143  12.728 -17.663  0.00  0.00    +0.255 HD
ATOM    110 HH12 ARG A   6     -20.791  11.591 -18.014  0.00  0.00    +0.255 HD
ATOM    111  HE  ARG A   6     -18.716  12.031 -17.233  0.00  0.00    +0.259 HD
ENDBRANCH 102 103
ENDBRANCH 101 102
ENDBRANCH 100 101
ENDBRANCH   1 100
TORSDOF 51
REMARK  Name = ../refined-set-2016/4ucc/4ucc_pocket.pdb
REMARK  137 active torsions:
REMARK  status: ('A' for Active; 'I' for Inactive)
REMARK    1  A    between atoms: _1  and  _3
REMARK    2  A    between atoms: _3  and  _4
REMARK    3  A    between atoms: _3  and  _6
REMARK    4  A    between atoms: _6  and  _7
REMARK    5  A    between atoms: _12  and  _14
REMARK    6  A    between atoms: _14  and  _15
REMARK    7  A    between atoms: _14  and  _17
REMARK    8  A    between atoms: _17  and  _18
REMARK    9  A    between atoms: _18  and  _19
REMARK   10  A    between atoms: _19  and  _20
REMARK   11  A    between atoms: _20  and  _21
REMARK   12  A    between atoms: _25  and  _27
REMARK   13  A    between atoms: _27  and  _28
REMARK   14  A    between atoms: _27  and  _30
REMARK   15  A    between atoms: _30  and  _31
REMARK   16  A    between atoms: _34  and  _36
REMARK   17  A    between atoms: _36  and  _37
REMARK   18  A    between atoms: _39  and  _41
REMARK   19  A    between atoms: _41  and  _42
REMARK   20  A    between atoms: _41  and  _44
REMARK   21  A    between atoms: _44  and  _45
REMARK   22  A    between atoms: _45  and  _46
REMARK   23  A    between atoms: _48  and  _50
REMARK   24  A    between atoms: _50  and  _51
REMARK   25  A    between atoms: _50  and  _53
REMARK   26  A    between atoms: _53  and  _54
REMARK   27  A    between atoms: _57  and  _59
REMARK   28  A    between atoms: _59  and  _60
REMARK   29  A    between atoms: _59  and  _62
REMARK   30  A    between atoms: _62  and  _63
REMARK   31  A    between atoms: _66  and  _68
REMARK   32  A    between atoms: _68  and  _69
REMARK   33  A    between atoms: _68  and  _71
REMARK   34  A    between atoms: _71  and  _72
REMARK   35  A    between atoms: _75  and  _77
REMARK   36  A    between atoms: _77  and  _78
REMARK   37  A    between atoms: _77  and  _80
REMARK   38  A    between atoms: _80  and  _81
REMARK   39  A    between atoms: _81  and  _82
REMARK   40  A    between atoms: _82  and  _83
REMARK   41  A    between atoms: _83  and  _84
REMARK   42  A    between atoms: _88  and  _90
REMARK   43  A    between atoms: _90  and  _91
REMARK   44  A    between atoms: _90  and  _93
REMARK   45  A    between atoms: _93  and  _94
REMARK   46  A    between atoms: _100  and  _102
REMARK   47  A    between atoms: _102  and  _103
REMARK   48  A    between atoms: _102  and  _105
REMARK   49  A    between atoms: _105  and  _106
REMARK   50  A    between atoms: _106  and  _107
REMARK   51  A    between atoms: _110  and  _112
REMARK   52  A    between atoms: _112  and  _113
REMARK   53  A    between atoms: _112  and  _115
REMARK   54  A    between atoms: _115  and  _116
REMARK   55  A    between atoms: _116  and  _117
REMARK   56  A    between atoms: _122  and  _124
REMARK   57  A    between atoms: _124  and  _125
REMARK   58  A    between atoms: _124  and  _127
REMARK   59  A    between atoms: _127  and  _128
REMARK   60  A    between atoms: _131  and  _133
REMARK   61  A    between atoms: _133  and  _134
REMARK   62  A    between atoms: _133  and  _136
REMARK   63  A    between atoms: _136  and  _137
REMARK   64  A    between atoms: _137  and  _138
REMARK   65  A    between atoms: _141  and  _143
REMARK   66  A    between atoms: _143  and  _144
REMARK   67  A    between atoms: _143  and  _146
REMARK   68  A    between atoms: _146  and  _147
REMARK   69  A    between atoms: _150  and  _152
REMARK   70  A    between atoms: _152  and  _153
REMARK   71  A    between atoms: _152  and  _155
REMARK   72  A    between atoms: _155  and  _156
REMARK   73  A    between atoms: _156  and  _157
REMARK   74  A    between atoms: _160  and  _162
REMARK   75  A    between atoms: _162  and  _163
REMARK   76  A    between atoms: _162  and  _165
REMARK   77  A    between atoms: _165  and  _166
REMARK   78  A    between atoms: _168  and  _170
REMARK   79  A    between atoms: _170  and  _171
REMARK   80  A    between atoms: _170  and  _173
REMARK   81  A    between atoms: _173  and  _174
REMARK   82  A    between atoms: _174  and  _175
REMARK   83  A    between atoms: _175  and  _176
REMARK   84  A    between atoms: _185  and  _187
REMARK   85  A    between atoms: _187  and  _188
REMARK   86  A    between atoms: _187  and  _190
REMARK   87  A    between atoms: _190  and  _191
REMARK   88  A    between atoms: _191  and  _192
REMARK   89  A    between atoms: _192  and  _193
REMARK   90  A    between atoms: _193  and  _194
REMARK   91  A    between atoms: _198  and  _200
REMARK   92  A    between atoms: _200  and  _201
REMARK   93  A    between atoms: _200  and  _203
REMARK   94  A    between atoms: _203  and  _204
REMARK   95  A    between atoms: _206  and  _208
REMARK   96  A    between atoms: _208  and  _209
REMARK   97  A    between atoms: _208  and  _211
REMARK   98  A    between atoms: _211  and  _212
REMARK   99  A    between atoms: _217  and  _218
REMARK  100  A    between atoms: _220  and  _222
REMARK  101  A    between atoms: _222  and  _223
REMARK  102  A    between atoms: _222  and  _225
REMARK  103  A    between atoms: _225  and  _226
REMARK  104  A    between atoms: _226  and  _227
REMARK  105  A    between atoms: _227  and  _228
REMARK  106  A    between atoms: _228  and  _229
REMARK  107  A    between atoms: _233  and  _235
REMARK  108  A    between atoms: _235  and  _236
REMARK  109  A    between atoms: _235  and  _238
REMARK  110  A    between atoms: _238  and  _239
REMARK  111  A    between atoms: _239  and  _240
REMARK  112  A    between atoms: _242  and  _244
REMARK  113  A    between atoms: _244  and  _245
REMARK  114  A    between atoms: _244  and  _247
REMARK  115  A    between atoms: _247  and  _248
REMARK  116  A    between atoms: _251  and  _253
REMARK  117  A    between atoms: _253  and  _254
REMARK  118  A    between atoms: _253  and  _256
REMARK  119  A    between atoms: _256  and  _257
REMARK  120  A    between atoms: _257  and  _258
REMARK  121  A    between atoms: _261  and  _263
REMARK  122  A    between atoms: _263  and  _264
REMARK  123  A    between atoms: _263  and  _266
REMARK  124  A    between atoms: _269  and  _271
REMARK  125  A    between atoms: _271  and  _272
REMARK  126  A    between atoms: _271  and  _274
REMARK  127  A    between atoms: _274  and  _275
REMARK  128  A    between atoms: _275  and  _276
REMARK  129  A    between atoms: _276  and  _277
REMARK  130  A    between atoms: _286  and  _288
REMARK  131  A    between atoms: _288  and  _289
REMARK  132  A    between atoms: _288  and  _291
REMARK  133  A    between atoms: _291  and  _292
REMARK  134  A    between atoms: _297  and  _299
REMARK  135  A    between atoms: _299  and  _300
REMARK  136  A    between atoms: _299  and  _302
REMARK  137  A    between atoms: _302  and  _303
REMARK                            x       y       z     vdW  Elec       q    Type
REMARK                         _______ _______ _______ _____ _____    ______ ____
ROOT
ATOM      1  C   MET A   1     -16.327  26.778 -18.368  0.00  0.00    +0.238 C 
ATOM      2  N   LEU A   2     -17.235  26.048 -17.653  0.00  0.00    -0.298 N 
ATOM      3  H   LEU A   2     -17.047  25.040 -17.481  0.00  0.00    +0.150 HD
ATOM      4  O   MET A   1     -16.480  27.972 -18.651  0.00  0.00    -0.274 OA
ENDROOT
BRANCH   1   5
ATOM      5  CA  MET A   1     -15.073  26.071 -18.844  0.00  0.00    +0.146 C 
BRANCH   5   6
ATOM      6  N   MET A   1     -14.501  25.302 -17.729  0.00  0.00    -0.238 NA
ATOM      7  H   MET A   1     -14.500  24.266 -17.814  0.00  0.00    +0.142 HD
ENDBRANCH   5   6
BRANCH   5   8
ATOM      8  CB  MET A   1     -15.416  25.173 -20.049  0.00  0.00    +0.038 C 
BRANCH   8   9
ATOM      9  CG  MET A   1     -14.207  24.594 -20.730  0.00  0.00    +0.060 C 
BRANCH   9  10
ATOM     10  SD  MET A   1     -14.608  23.396 -22.058  0.00  0.00    -0.139 S 
ATOM     11  CE  MET A   1     -15.319  24.571 -23.253  0.00  0.00    +0.069 C 
ENDBRANCH   9  10
ENDBRANCH   8   9
ENDBRANCH   5   8
ENDBRANCH   1   5
BRANCH   2  12
ATOM     12  CA  LEU A   2     -18.471  26.645 -17.119  0.00  0.00    +0.137 C 
BRANCH  12  13
ATOM     13  C   LEU A   2     -18.111  27.811 -16.242  0.00  0.00    +0.227 C 
ATOM     14  O   LEU A   2     -18.688  28.888 -16.377  0.00  0.00    -0.286 OA
ENDBRANCH  12  13
BRANCH  12  15
ATOM     15  CB  LEU A   2     -19.299  25.632 -16.302  0.00  0.00    +0.028 C 
BRANCH  15  16
ATOM     16  CG  LEU A   2     -19.991  24.501 -17.056  0.00  0.00    +0.002 C 
ATOM     17  CD2 LEU A   2     -20.628  23.560 -16.080  0.00  0.00    +0.000 C 
ATOM     18  CD1 LEU A   2     -21.070  25.019 -17.992  0.00  0.00    +0.000 C 
ENDBRANCH  15  16
ENDBRANCH  12  15
ENDBRANCH   2  12
TORSDOF 9
REMARK  Name = ../refined-set-2016/4ucc/4ucc_pocket.pdb
REMARK  137 active torsions:
REMARK  status: ('A' for Active; 'I' for Inactive)
REMARK    1  A    between atoms: _1  and  _3
REMARK    2  A    between atoms: _3  and  _4
REMARK    3  A    between atoms: _3  and  _6
REMARK    4  A    between atoms: _6  and  _7
REMARK    5  A    between atoms: _12  and  _14
REMARK    6  A    between atoms: _14  and  _15
REMARK    7  A    between atoms: _14  and  _17
REMARK    8  A    between atoms: _17  and  _18
REMARK    9  A    between atoms: _18  and  _19
REMARK   10  A    between atoms: _19  and  _20
REMARK   11  A    between atoms: _20  and  _21
REMARK   12  A    between atoms: _25  and  _27
REMARK   13  A    between atoms: _27  and  _28
REMARK   14  A    between atoms: _27  and  _30
REMARK   15  A    between atoms: _30  and  _31
REMARK   16  A    between atoms: _34  and  _36
REMARK   17  A    between atoms: _36  and  _37
REMARK   18  A    between atoms: _39  and  _41
REMARK   19  A    between atoms: _41  and  _42
REMARK   20  A    between atoms: _41  and  _44
REMARK   21  A    between atoms: _44  and  _45
REMARK   22  A    between atoms: _45  and  _46
REMARK   23  A    between atoms: _48  and  _50
REMARK   24  A    between atoms: _50  and  _51
REMARK   25  A    between atoms: _50  and  _53
REMARK   26  A    between atoms: _53  and  _54
REMARK   27  A    between atoms: _57  and  _59
REMARK   28  A    between atoms: _59  and  _60
REMARK   29  A    between atoms: _59  and  _62
REMARK   30  A    between atoms: _62  and  _63
REMARK   31  A    between atoms: _66  and  _68
REMARK   32  A    between atoms: _68  and  _69
REMARK   33  A    between atoms: _68  and  _71
REMARK   34  A    between atoms: _71  and  _72
REMARK   35  A    between atoms: _75  and  _77
REMARK   36  A    between atoms: _77  and  _78
REMARK   37  A    between atoms: _77  and  _80
REMARK   38  A    between atoms: _80  and  _81
REMARK   39  A    between atoms: _81  and  _82
REMARK   40  A    between atoms: _82  and  _83
REMARK   41  A    between atoms: _83  and  _84
REMARK   42  A    between atoms: _88  and  _90
REMARK   43  A    between atoms: _90  and  _91
REMARK   44  A    between atoms: _90  and  _93
REMARK   45  A    between atoms: _93  and  _94
REMARK   46  A    between atoms: _100  and  _102
REMARK   47  A    between atoms: _102  and  _103
REMARK   48  A    between atoms: _102  and  _105
REMARK   49  A    between atoms: _105  and  _106
REMARK   50  A    between atoms: _106  and  _107
REMARK   51  A    between atoms: _110  and  _112
REMARK   52  A    between atoms: _112  and  _113
REMARK   53  A    between atoms: _112  and  _115
REMARK   54  A    between atoms: _115  and  _116
REMARK   55  A    between atoms: _116  and  _117
REMARK   56  A    between atoms: _122  and  _124
REMARK   57  A    between atoms: _124  and  _125
REMARK   58  A    between atoms: _124  and  _127
REMARK   59  A    between atoms: _127  and  _128
REMARK   60  A    between atoms: _131  and  _133
REMARK   61  A    between atoms: _133  and  _134
REMARK   62  A    between atoms: _133  and  _136
REMARK   63  A    between atoms: _136  and  _137
REMARK   64  A    between atoms: _137  and  _138
REMARK   65  A    between atoms: _141  and  _143
REMARK   66  A    between atoms: _143  and  _144
REMARK   67  A    between atoms: _143  and  _146
REMARK   68  A    between atoms: _146  and  _147
REMARK   69  A    between atoms: _150  and  _152
REMARK   70  A    between atoms: _152  and  _153
REMARK   71  A    between atoms: _152  and  _155
REMARK   72  A    between atoms: _155  and  _156
REMARK   73  A    between atoms: _156  and  _157
REMARK   74  A    between atoms: _160  and  _162
REMARK   75  A    between atoms: _162  and  _163
REMARK   76  A    between atoms: _162  and  _165
REMARK   77  A    between atoms: _165  and  _166
REMARK   78  A    between atoms: _168  and  _170
REMARK   79  A    between atoms: _170  and  _171
REMARK   80  A    between atoms: _170  and  _173
REMARK   81  A    between atoms: _173  and  _174
REMARK   82  A    between atoms: _174  and  _175
REMARK   83  A    between atoms: _175  and  _176
REMARK   84  A    between atoms: _185  and  _187
REMARK   85  A    between atoms: _187  and  _188
REMARK   86  A    between atoms: _187  and  _190
REMARK   87  A    between atoms: _190  and  _191
REMARK   88  A    between atoms: _191  and  _192
REMARK   89  A    between atoms: _192  and  _193
REMARK   90  A    between atoms: _193  and  _194
REMARK   91  A    between atoms: _198  and  _200
REMARK   92  A    between atoms: _200  and  _201
REMARK   93  A    between atoms: _200  and  _203
REMARK   94  A    between atoms: _203  and  _204
REMARK   95  A    between atoms: _206  and  _208
REMARK   96  A    between atoms: _208  and  _209
REMARK   97  A    between atoms: _208  and  _211
REMARK   98  A    between atoms: _211  and  _212
REMARK   99  A    between atoms: _217  and  _218
REMARK  100  A    between atoms: _220  and  _222
REMARK  101  A    between atoms: _222  and  _223
REMARK  102  A    between atoms: _222  and  _225
REMARK  103  A    between atoms: _225  and  _226
REMARK  104  A    between atoms: _226  and  _227
REMARK  105  A    between atoms: _227  and  _228
REMARK  106  A    between atoms: _228  and  _229
REMARK  107  A    between atoms: _233  and  _235
REMARK  108  A    between atoms: _235  and  _236
REMARK  109  A    between atoms: _235  and  _238
REMARK  110  A    between atoms: _238  and  _239
REMARK  111  A    between atoms: _239  and  _240
REMARK  112  A    between atoms: _242  and  _244
REMARK  113  A    between atoms: _244  and  _245
REMARK  114  A    between atoms: _244  and  _247
REMARK  115  A    between atoms: _247  and  _248
REMARK  116  A    between atoms: _251  and  _253
REMARK  117  A    between atoms: _253  and  _254
REMARK  118  A    between atoms: _253  and  _256
REMARK  119  A    between atoms: _256  and  _257
REMARK  120  A    between atoms: _257  and  _258
REMARK  121  A    between atoms: _261  and  _263
REMARK  122  A    between atoms: _263  and  _264
REMARK  123  A    between atoms: _263  and  _266
REMARK  124  A    between atoms: _269  and  _271
REMARK  125  A    between atoms: _271  and  _272
REMARK  126  A    between atoms: _271  and  _274
REMARK  127  A    between atoms: _274  and  _275
REMARK  128  A    between atoms: _275  and  _276
REMARK  129  A    between atoms: _276  and  _277
REMARK  130  A    between atoms: _286  and  _288
REMARK  131  A    between atoms: _288  and  _289
REMARK  132  A    between atoms: _288  and  _291
REMARK  133  A    between atoms: _291  and  _292
REMARK  134  A    between atoms: _297  and  _299
REMARK  135  A    between atoms: _299  and  _300
REMARK  136  A    between atoms: _299  and  _302
REMARK  137  A    between atoms: _302  and  _303
REMARK                            x       y       z     vdW  Elec       q    Type
REMARK                         _______ _______ _______ _____ _____    ______ ____
ROOT
ATOM      1  C   GLU A   1     -22.110  27.579 -21.773  0.00  0.00    +0.238 C 
ATOM      2  N   VAL A   2     -21.625  26.450 -22.241  0.00  0.00    -0.298 N 
ATOM      3  H   VAL A   2     -21.877  25.586 -21.720  0.00  0.00    +0.150 HD
ATOM      4  O   GLU A   1     -21.935  28.666 -22.317  0.00  0.00    -0.274 OA
ENDROOT
BRANCH   1   5
ATOM      5  CA  GLU A   1     -22.858  27.470 -20.464  0.00  0.00    +0.145 C 
BRANCH   5   6
ATOM      6  N   GLU A   1     -22.576  28.608 -19.560  0.00  0.00    -0.238 NA
ATOM      7  H   GLU A   1     -23.360  29.192 -19.206  0.00  0.00    +0.142 HD
ENDBRANCH   5   6
BRANCH   5   8
ATOM      8  CB  GLU A   1     -24.361  27.236 -20.691  0.00  0.00    +0.038 C 
BRANCH   8   9
ATOM      9  CG  GLU A   1     -25.021  26.399 -19.601  0.00  0.00    +0.116 C 
BRANCH   9  10
ATOM     10  CD  GLU A   1     -24.564  24.954 -19.468  0.00  0.00    +0.365 C 
ATOM     11  OE2 GLU A   1     -24.857  24.343 -18.414  0.00  0.00    -0.246 OA
ATOM     12  OE1 GLU A   1     -23.899  24.437 -20.397  0.00  0.00    -0.246 OA
ENDBRANCH   9  10
ENDBRANCH   8   9
ENDBRANCH   5   8
ENDBRANCH   1   5
BRANCH   2  13
ATOM     13  CA  VAL A   2     -20.777  26.280 -23.405  0.00  0.00    +0.137 C 
BRANCH  13  14
ATOM     14  CB  VAL A   2     -19.893  25.045 -23.116  0.00  0.00    +0.026 C 
ATOM     15  CG2 VAL A   2     -19.165  25.196 -21.765  0.00  0.00    +0.002 C 
ATOM     16  CG1 VAL A   2     -18.912  24.777 -24.244  0.00  0.00    +0.002 C 
ENDBRANCH  13  14
BRANCH  13  17
ATOM     17  C   VAL A   2     -21.569  26.185 -24.729  0.00  0.00    +0.227 C 
ATOM     18  O   VAL A   2     -22.527  25.418 -24.801  0.00  0.00    -0.286 OA
ENDBRANCH  13  17
ENDBRANCH   2  13
TORSDOF 8
REMARK  Name = ../refined-set-2016/4ucc/4ucc_pocket.pdb
REMARK  137 active torsions:
REMARK  status: ('A' for Active; 'I' for Inactive)
REMARK    1  A    between atoms: _1  and  _3
REMARK    2  A    between atoms: _3  and  _4
REMARK    3  A    between atoms: _3  and  _6
REMARK    4  A    between atoms: _6  and  _7
REMARK    5  A    between atoms: _12  and  _14
REMARK    6  A    between atoms: _14  and  _15
REMARK    7  A    between atoms: _14  and  _17
REMARK    8  A    between atoms: _17  and  _18
REMARK    9  A    between atoms: _18  and  _19
REMARK   10  A    between atoms: _19  and  _20
REMARK   11  A    between atoms: _20  and  _21
REMARK   12  A    between atoms: _25  and  _27
REMARK   13  A    between atoms: _27  and  _28
REMARK   14  A    between atoms: _27  and  _30
REMARK   15  A    between atoms: _30  and  _31
REMARK   16  A    between atoms: _34  and  _36
REMARK   17  A    between atoms: _36  and  _37
REMARK   18  A    between atoms: _39  and  _41
REMARK   19  A    between atoms: _41  and  _42
REMARK   20  A    between atoms: _41  and  _44
REMARK   21  A    between atoms: _44  and  _45
REMARK   22  A    between atoms: _45  and  _46
REMARK   23  A    between atoms: _48  and  _50
REMARK   24  A    between atoms: _50  and  _51
REMARK   25  A    between atoms: _50  and  _53
REMARK   26  A    between atoms: _53  and  _54
REMARK   27  A    between atoms: _57  and  _59
REMARK   28  A    between atoms: _59  and  _60
REMARK   29  A    between atoms: _59  and  _62
REMARK   30  A    between atoms: _62  and  _63
REMARK   31  A    between atoms: _66  and  _68
REMARK   32  A    between atoms: _68  and  _69
REMARK   33  A    between atoms: _68  and  _71
REMARK   34  A    between atoms: _71  and  _72
REMARK   35  A    between atoms: _75  and  _77
REMARK   36  A    between atoms: _77  and  _78
REMARK   37  A    between atoms: _77  and  _80
REMARK   38  A    between atoms: _80  and  _81
REMARK   39  A    between atoms: _81  and  _82
REMARK   40  A    between atoms: _82  and  _83
REMARK   41  A    between atoms: _83  and  _84
REMARK   42  A    between atoms: _88  and  _90
REMARK   43  A    between atoms: _90  and  _91
REMARK   44  A    between atoms: _90  and  _93
REMARK   45  A    between atoms: _93  and  _94
REMARK   46  A    between atoms: _100  and  _102
REMARK   47  A    between atoms: _102  and  _103
REMARK   48  A    between atoms: _102  and  _105
REMARK   49  A    between atoms: _105  and  _106
REMARK   50  A    between atoms: _106  and  _107
REMARK   51  A    between atoms: _110  and  _112
REMARK   52  A    between atoms: _112  and  _113
REMARK   53  A    between atoms: _112  and  _115
REMARK   54  A    between atoms: _115  and  _116
REMARK   55  A    between atoms: _116  and  _117
REMARK   56  A    between atoms: _122  and  _124
REMARK   57  A    between atoms: _124  and  _125
REMARK   58  A    between atoms: _124  and  _127
REMARK   59  A    between atoms: _127  and  _128
REMARK   60  A    between atoms: _131  and  _133
REMARK   61  A    between atoms: _133  and  _134
REMARK   62  A    between atoms: _133  and  _136
REMARK   63  A    between atoms: _136  and  _137
REMARK   64  A    between atoms: _137  and  _138
REMARK   65  A    between atoms: _141  and  _143
REMARK   66  A    between atoms: _143  and  _144
REMARK   67  A    between atoms: _143  and  _146
REMARK   68  A    between atoms: _146  and  _147
REMARK   69  A    between atoms: _150  and  _152
REMARK   70  A    between atoms: _152  and  _153
REMARK   71  A    between atoms: _152  and  _155
REMARK   72  A    between atoms: _155  and  _156
REMARK   73  A    between atoms: _156  and  _157
REMARK   74  A    between atoms: _160  and  _162
REMARK   75  A    between atoms: _162  and  _163
REMARK   76  A    between atoms: _162  and  _165
REMARK   77  A    between atoms: _165  and  _166
REMARK   78  A    between atoms: _168  and  _170
REMARK   79  A    between atoms: _170  and  _171
REMARK   80  A    between atoms: _170  and  _173
REMARK   81  A    between atoms: _173  and  _174
REMARK   82  A    between atoms: _174  and  _175
REMARK   83  A    between atoms: _175  and  _176
REMARK   84  A    between atoms: _185  and  _187
REMARK   85  A    between atoms: _187  and  _188
REMARK   86  A    between atoms: _187  and  _190
REMARK   87  A    between atoms: _190  and  _191
REMARK   88  A    between atoms: _191  and  _192
REMARK   89  A    between atoms: _192  and  _193
REMARK   90  A    between atoms: _193  and  _194
REMARK   91  A    between atoms: _198  and  _200
REMARK   92  A    between atoms: _200  and  _201
REMARK   93  A    between atoms: _200  and  _203
REMARK   94  A    between atoms: _203  and  _204
REMARK   95  A    between atoms: _206  and  _208
REMARK   96  A    between atoms: _208  and  _209
REMARK   97  A    between atoms: _208  and  _211
REMARK   98  A    between atoms: _211  and  _212
REMARK   99  A    between atoms: _217  and  _218
REMARK  100  A    between atoms: _220  and  _222
REMARK  101  A    between atoms: _222  and  _223
REMARK  102  A    between atoms: _222  and  _225
REMARK  103  A    between atoms: _225  and  _226
REMARK  104  A    between atoms: _226  and  _227
REMARK  105  A    between atoms: _227  and  _228
REMARK  106  A    between atoms: _228  and  _229
REMARK  107  A    between atoms: _233  and  _235
REMARK  108  A    between atoms: _235  and  _236
REMARK  109  A    between atoms: _235  and  _238
REMARK  110  A    between atoms: _238  and  _239
REMARK  111  A    between atoms: _239  and  _240
REMARK  112  A    between atoms: _242  and  _244
REMARK  113  A    between atoms: _244  and  _245
REMARK  114  A    between atoms: _244  and  _247
REMARK  115  A    between atoms: _247  and  _248
REMARK  116  A    between atoms: _251  and  _253
REMARK  117  A    between atoms: _253  and  _254
REMARK  118  A    between atoms: _253  and  _256
REMARK  119  A    between atoms: _256  and  _257
REMARK  120  A    between atoms: _257  and  _258
REMARK  121  A    between atoms: _261  and  _263
REMARK  122  A    between atoms: _263  and  _264
REMARK  123  A    between atoms: _263  and  _266
REMARK  124  A    between atoms: _269  and  _271
REMARK  125  A    between atoms: _271  and  _272
REMARK  126  A    between atoms: _271  and  _274
REMARK  127  A    between atoms: _274  and  _275
REMARK  128  A    between atoms: _275  and  _276
REMARK  129  A    between atoms: _276  and  _277
REMARK  130  A    between atoms: _286  and  _288
REMARK  131  A    between atoms: _288  and  _289
REMARK  132  A    between atoms: _288  and  _291
REMARK  133  A    between atoms: _291  and  _292
REMARK  134  A    between atoms: _297  and  _299
REMARK  135  A    between atoms: _299  and  _300
REMARK  136  A    between atoms: _299  and  _302
REMARK  137  A    between atoms: _302  and  _303
REMARK                            x       y       z     vdW  Elec       q    Type
REMARK                         _______ _______ _______ _____ _____    ______ ____
ROOT
ATOM      1  C   ARG A   1     -17.932  19.783 -27.028  0.00  0.00    +0.238 C 
ATOM      2  N   HIS A   2     -17.831  18.744 -26.180  0.00  0.00    -0.297 N 
ATOM      3  H   HIS A   2     -18.182  18.890 -25.212  0.00  0.00    +0.150 HD
ATOM      4  O   ARG A   1     -17.540  19.744 -28.202  0.00  0.00    -0.274 OA
ENDROOT
BRANCH   1   5
ATOM      5  CA  ARG A   1     -18.620  21.024 -26.479  0.00  0.00    +0.145 C 
BRANCH   5   6
ATOM      6  N   ARG A   1     -18.320  22.217 -27.286  0.00  0.00    -0.238 NA
ATOM      7  H   ARG A   1     -18.965  22.469 -28.062  0.00  0.00    +0.142 HD
ENDBRANCH   5   6
BRANCH   5   8
ATOM      8  CB  ARG A   1     -20.129  20.781 -26.433  0.00  0.00    +0.030 C 
BRANCH   8   9
ATOM      9  CG  ARG A   1     -20.923  21.796 -25.594  0.00  0.00    +0.045 C 
BRANCH   9  10
ATOM     10  CD  ARG A   1     -22.417  21.565 -25.778  0.00  0.00    +0.174 C 
BRANCH  10  11
ATOM     11  NE  ARG A   1     -22.807  20.182 -25.474  0.00  0.00    -0.265 N 
ATOM     12  CZ  ARG A   1     -23.025  19.725 -24.244  0.00  0.00    +0.342 C 
ATOM     13  NH2 ARG A   1     -22.922  20.535 -23.200  0.00  0.00    -0.292 N 
ATOM     14 HH21 ARG A   1     -23.094  20.171 -22.241  0.00  0.00    +0.255 HD
ATOM     15 HH22 ARG A   1     -22.669  21.534 -23.340  0.00  0.00    +0.255 HD
ATOM     16  NH1 ARG A   1     -23.358  18.460 -24.050  0.00  0.00    -0.292 N 
ATOM     17 HH11 ARG A   1     -23.527  18.109 -23.086  0.00  0.00    +0.255 HD
ATOM     18 HH12 ARG A   1     -23.451  17.816 -24.862  0.00  0.00    +0.255 HD
ATOM     19  HE  ARG A   1     -22.919  19.520 -26.268  0.00  0.00    +0.259 HD
ENDBRANCH  10  11
ENDBRANCH   9  10
ENDBRANCH   8   9
ENDBRANCH   5   8
ENDBRANCH   1   5
BRANCH   2  20
ATOM     20  CA  HIS A   2     -17.269  17.418 -26.494  0.00  0.00    +0.155 C 
BRANCH  20  21
ATOM     21  C   HIS A   2     -18.171  16.631 -27.489  0.00  0.00    +0.241 C 
ATOM     22  N   ASP A   3     -19.452  16.998 -27.606  0.00  0.00    -0.298 N 
ATOM     23  H   ASP A   3     -19.801  17.814 -27.064  0.00  0.00    +0.150 HD
ATOM     24  O   HIS A   2     -17.735  15.628 -28.044  0.00  0.00    -0.273 OA
BRANCH  22  25
ATOM     25  CA  ASP A   3     -20.373  16.271 -28.484  0.00  0.00    +0.148 C 
BRANCH  25  26
ATOM     26  C   ASP A   3     -20.683  16.999 -29.810  0.00  0.00    +0.227 C 
ATOM     27  O   ASP A   3     -21.651  16.641 -30.499  0.00  0.00    -0.286 OA
ENDBRANCH  25  26
BRANCH  25  28
ATOM     28  CB  ASP A   3     -21.661  15.885 -27.740  0.00  0.00    +0.142 C 
BRANCH  28  29
ATOM     29  CG  ASP A   3     -22.410  17.032 -27.085  0.00  0.00    +0.367 C 
ATOM     30  OD2 ASP A   3     -23.397  16.763 -26.387  0.00  0.00    -0.246 OA
ATOM     31  OD1 ASP A   3     -22.012  18.194 -27.284  0.00  0.00    -0.246 OA
ENDBRANCH  28  29
ENDBRANCH  25  28
ENDBRANCH  22  25
ENDBRANCH  20  21
BRANCH  20  32
ATOM     32  CB  HIS A   2     -17.132  16.594 -25.181  0.00  0.00    +0.076 C 
BRANCH  32  33
ATOM     33  CG  HIS A   2     -18.446  16.114 -24.606  0.00  0.00    +0.082 A 
ATOM     34  ND1 HIS A   2     -19.338  16.984 -23.984  0.00  0.00    -0.227 NA
ATOM     35  CE1 HIS A   2     -20.378  16.253 -23.632  0.00  0.00    +0.199 A 
ATOM     36  NE2 HIS A   2     -20.218  14.975 -23.992  0.00  0.00    -0.221 NA
ATOM     37  CD2 HIS A   2     -18.989  14.873 -24.613  0.00  0.00    +0.115 A 
ENDBRANCH  32  33
ENDBRANCH  20  32
ENDBRANCH   2  20
TORSDOF 14
REMARK  Name = ../refined-set-2016/4ucc/4ucc_pocket.pdb
REMARK  137 active torsions:
REMARK  status: ('A' for Active; 'I' for Inactive)
REMARK    1  A    between atoms: _1  and  _3
REMARK    2  A    between atoms: _3  and  _4
REMARK    3  A    between atoms: _3  and  _6
REMARK    4  A    between atoms: _6  and  _7
REMARK    5  A    between atoms: _12  and  _14
REMARK    6  A    between atoms: _14  and  _15
REMARK    7  A    between atoms: _14  and  _17
REMARK    8  A    between atoms: _17  and  _18
REMARK    9  A    between atoms: _18  and  _19
REMARK   10  A    between atoms: _19  and  _20
REMARK   11  A    between atoms: _20  and  _21
REMARK   12  A    between atoms: _25  and  _27
REMARK   13  A    between atoms: _27  and  _28
REMARK   14  A    between atoms: _27  and  _30
REMARK   15  A    between atoms: _30  and  _31
REMARK   16  A    between atoms: _34  and  _36
REMARK   17  A    between atoms: _36  and  _37
REMARK   18  A    between atoms: _39  and  _41
REMARK   19  A    between atoms: _41  and  _42
REMARK   20  A    between atoms: _41  and  _44
REMARK   21  A    between atoms: _44  and  _45
REMARK   22  A    between atoms: _45  and  _46
REMARK   23  A    between atoms: _48  and  _50
REMARK   24  A    between atoms: _50  and  _51
REMARK   25  A    between atoms: _50  and  _53
REMARK   26  A    between atoms: _53  and  _54
REMARK   27  A    between atoms: _57  and  _59
REMARK   28  A    between atoms: _59  and  _60
REMARK   29  A    between atoms: _59  and  _62
REMARK   30  A    between atoms: _62  and  _63
REMARK   31  A    between atoms: _66  and  _68
REMARK   32  A    between atoms: _68  and  _69
REMARK   33  A    between atoms: _68  and  _71
REMARK   34  A    between atoms: _71  and  _72
REMARK   35  A    between atoms: _75  and  _77
REMARK   36  A    between atoms: _77  and  _78
REMARK   37  A    between atoms: _77  and  _80
REMARK   38  A    between atoms: _80  and  _81
REMARK   39  A    between atoms: _81  and  _82
REMARK   40  A    between atoms: _82  and  _83
REMARK   41  A    between atoms: _83  and  _84
REMARK   42  A    between atoms: _88  and  _90
REMARK   43  A    between atoms: _90  and  _91
REMARK   44  A    between atoms: _90  and  _93
REMARK   45  A    between atoms: _93  and  _94
REMARK   46  A    between atoms: _100  and  _102
REMARK   47  A    between atoms: _102  and  _103
REMARK   48  A    between atoms: _102  and  _105
REMARK   49  A    between atoms: _105  and  _106
REMARK   50  A    between atoms: _106  and  _107
REMARK   51  A    between atoms: _110  and  _112
REMARK   52  A    between atoms: _112  and  _113
REMARK   53  A    between atoms: _112  and  _115
REMARK   54  A    between atoms: _115  and  _116
REMARK   55  A    between atoms: _116  and  _117
REMARK   56  A    between atoms: _122  and  _124
REMARK   57  A    between atoms: _124  and  _125
REMARK   58  A    between atoms: _124  and  _127
REMARK   59  A    between atoms: _127  and  _128
REMARK   60  A    between atoms: _131  and  _133
REMARK   61  A    between atoms: _133  and  _134
REMARK   62  A    between atoms: _133  and  _136
REMARK   63  A    between atoms: _136  and  _137
REMARK   64  A    between atoms: _137  and  _138
REMARK   65  A    between atoms: _141  and  _143
REMARK   66  A    between atoms: _143  and  _144
REMARK   67  A    between atoms: _143  and  _146
REMARK   68  A    between atoms: _146  and  _147
REMARK   69  A    between atoms: _150  and  _152
REMARK   70  A    between atoms: _152  and  _153
REMARK   71  A    between atoms: _152  and  _155
REMARK   72  A    between atoms: _155  and  _156
REMARK   73  A    between atoms: _156  and  _157
REMARK   74  A    between atoms: _160  and  _162
REMARK   75  A    between atoms: _162  and  _163
REMARK   76  A    between atoms: _162  and  _165
REMARK   77  A    between atoms: _165  and  _166
REMARK   78  A    between atoms: _168  and  _170
REMARK   79  A    between atoms: _170  and  _171
REMARK   80  A    between atoms: _170  and  _173
REMARK   81  A    between atoms: _173  and  _174
REMARK   82  A    between atoms: _174  and  _175
REMARK   83  A    between atoms: _175  and  _176
REMARK   84  A    between atoms: _185  and  _187
REMARK   85  A    between atoms: _187  and  _188
REMARK   86  A    between atoms: _187  and  _190
REMARK   87  A    between atoms: _190  and  _191
REMARK   88  A    between atoms: _191  and  _192
REMARK   89  A    between atoms: _192  and  _193
REMARK   90  A    between atoms: _193  and  _194
REMARK   91  A    between atoms: _198  and  _200
REMARK   92  A    between atoms: _200  and  _201
REMARK   93  A    between atoms: _200  and  _203
REMARK   94  A    between atoms: _203  and  _204
REMARK   95  A    between atoms: _206  and  _208
REMARK   96  A    between atoms: _208  and  _209
REMARK   97  A    between atoms: _208  and  _211
REMARK   98  A    between atoms: _211  and  _212
REMARK   99  A    between atoms: _217  and  _218
REMARK  100  A    between atoms: _220  and  _222
REMARK  101  A    between atoms: _222  and  _223
REMARK  102  A    between atoms: _222  and  _225
REMARK  103  A    between atoms: _225  and  _226
REMARK  104  A    between atoms: _226  and  _227
REMARK  105  A    between atoms: _227  and  _228
REMARK  106  A    between atoms: _228  and  _229
REMARK  107  A    between atoms: _233  and  _235
REMARK  108  A    between atoms: _235  and  _236
REMARK  109  A    between atoms: _235  and  _238
REMARK  110  A    between atoms: _238  and  _239
REMARK  111  A    between atoms: _239  and  _240
REMARK  112  A    between atoms: _242  and  _244
REMARK  113  A    between atoms: _244  and  _245
REMARK  114  A    between atoms: _244  and  _247
REMARK  115  A    between atoms: _247  and  _248
REMARK  116  A    between atoms: _251  and  _253
REMARK  117  A    between atoms: _253  and  _254
REMARK  118  A    between atoms: _253  and  _256
REMARK  119  A    between atoms: _256  and  _257
REMARK  120  A    between atoms: _257  and  _258
REMARK  121  A    between atoms: _261  and  _263
REMARK  122  A    between atoms: _263  and  _264
REMARK  123  A    between atoms: _263  and  _266
REMARK  124  A    between atoms: _269  and  _271
REMARK  125  A    between atoms: _271  and  _272
REMARK  126  A    between atoms: _271  and  _274
REMARK  127  A    between atoms: _274  and  _275
REMARK  128  A    between atoms: _275  and  _276
REMARK  129  A    between atoms: _276  and  _277
REMARK  130  A    between atoms: _286  and  _288
REMARK  131  A    between atoms: _288  and  _289
REMARK  132  A    between atoms: _288  and  _291
REMARK  133  A    between atoms: _291  and  _292
REMARK  134  A    between atoms: _297  and  _299
REMARK  135  A    between atoms: _299  and  _300
REMARK  136  A    between atoms: _299  and  _302
REMARK  137  A    between atoms: _302  and  _303
REMARK                            x       y       z     vdW  Elec       q    Type
REMARK                         _______ _______ _______ _____ _____    ______ ____
ROOT
ATOM      1  O   HOH     1     -18.659   8.649 -25.689  0.00  0.00    +0.000 OA
ENDROOT
TORSDOF 0
REMARK  Name = ../refined-set-2016/4ucc/4ucc_pocket.pdb
REMARK  137 active torsions:
REMARK  status: ('A' for Active; 'I' for Inactive)
REMARK    1  A    between atoms: _1  and  _3
REMARK    2  A    between atoms: _3  and  _4
REMARK    3  A    between atoms: _3  and  _6
REMARK    4  A    between atoms: _6  and  _7
REMARK    5  A    between atoms: _12  and  _14
REMARK    6  A    between atoms: _14  and  _15
REMARK    7  A    between atoms: _14  and  _17
REMARK    8  A    between atoms: _17  and  _18
REMARK    9  A    between atoms: _18  and  _19
REMARK   10  A    between atoms: _19  and  _20
REMARK   11  A    between atoms: _20  and  _21
REMARK   12  A    between atoms: _25  and  _27
REMARK   13  A    between atoms: _27  and  _28
REMARK   14  A    between atoms: _27  and  _30
REMARK   15  A    between atoms: _30  and  _31
REMARK   16  A    between atoms: _34  and  _36
REMARK   17  A    between atoms: _36  and  _37
REMARK   18  A    between atoms: _39  and  _41
REMARK   19  A    between atoms: _41  and  _42
REMARK   20  A    between atoms: _41  and  _44
REMARK   21  A    between atoms: _44  and  _45
REMARK   22  A    between atoms: _45  and  _46
REMARK   23  A    between atoms: _48  and  _50
REMARK   24  A    between atoms: _50  and  _51
REMARK   25  A    between atoms: _50  and  _53
REMARK   26  A    between atoms: _53  and  _54
REMARK   27  A    between atoms: _57  and  _59
REMARK   28  A    between atoms: _59  and  _60
REMARK   29  A    between atoms: _59  and  _62
REMARK   30  A    between atoms: _62  and  _63
REMARK   31  A    between atoms: _66  and  _68
REMARK   32  A    between atoms: _68  and  _69
REMARK   33  A    between atoms: _68  and  _71
REMARK   34  A    between atoms: _71  and  _72
REMARK   35  A    between atoms: _75  and  _77
REMARK   36  A    between atoms: _77  and  _78
REMARK   37  A    between atoms: _77  and  _80
REMARK   38  A    between atoms: _80  and  _81
REMARK   39  A    between atoms: _81  and  _82
REMARK   40  A    between atoms: _82  and  _83
REMARK   41  A    between atoms: _83  and  _84
REMARK   42  A    between atoms: _88  and  _90
REMARK   43  A    between atoms: _90  and  _91
REMARK   44  A    between atoms: _90  and  _93
REMARK   45  A    between atoms: _93  and  _94
REMARK   46  A    between atoms: _100  and  _102
REMARK   47  A    between atoms: _102  and  _103
REMARK   48  A    between atoms: _102  and  _105
REMARK   49  A    between atoms: _105  and  _106
REMARK   50  A    between atoms: _106  and  _107
REMARK   51  A    between atoms: _110  and  _112
REMARK   52  A    between atoms: _112  and  _113
REMARK   53  A    between atoms: _112  and  _115
REMARK   54  A    between atoms: _115  and  _116
REMARK   55  A    between atoms: _116  and  _117
REMARK   56  A    between atoms: _122  and  _124
REMARK   57  A    between atoms: _124  and  _125
REMARK   58  A    between atoms: _124  and  _127
REMARK   59  A    between atoms: _127  and  _128
REMARK   60  A    between atoms: _131  and  _133
REMARK   61  A    between atoms: _133  and  _134
REMARK   62  A    between atoms: _133  and  _136
REMARK   63  A    between atoms: _136  and  _137
REMARK   64  A    between atoms: _137  and  _138
REMARK   65  A    between atoms: _141  and  _143
REMARK   66  A    between atoms: _143  and  _144
REMARK   67  A    between atoms: _143  and  _146
REMARK   68  A    between atoms: _146  and  _147
REMARK   69  A    between atoms: _150  and  _152
REMARK   70  A    between atoms: _152  and  _153
REMARK   71  A    between atoms: _152  and  _155
REMARK   72  A    between atoms: _155  and  _156
REMARK   73  A    between atoms: _156  and  _157
REMARK   74  A    between atoms: _160  and  _162
REMARK   75  A    between atoms: _162  and  _163
REMARK   76  A    between atoms: _162  and  _165
REMARK   77  A    between atoms: _165  and  _166
REMARK   78  A    between atoms: _168  and  _170
REMARK   79  A    between atoms: _170  and  _171
REMARK   80  A    between atoms: _170  and  _173
REMARK   81  A    between atoms: _173  and  _174
REMARK   82  A    between atoms: _174  and  _175
REMARK   83  A    between atoms: _175  and  _176
REMARK   84  A    between atoms: _185  and  _187
REMARK   85  A    between atoms: _187  and  _188
REMARK   86  A    between atoms: _187  and  _190
REMARK   87  A    between atoms: _190  and  _191
REMARK   88  A    between atoms: _191  and  _192
REMARK   89  A    between atoms: _192  and  _193
REMARK   90  A    between atoms: _193  and  _194
REMARK   91  A    between atoms: _198  and  _200
REMARK   92  A    between atoms: _200  and  _201
REMARK   93  A    between atoms: _200  and  _203
REMARK   94  A    between atoms: _203  and  _204
REMARK   95  A    between atoms: _206  and  _208
REMARK   96  A    between atoms: _208  and  _209
REMARK   97  A    between atoms: _208  and  _211
REMARK   98  A    between atoms: _211  and  _212
REMARK   99  A    between atoms: _217  and  _218
REMARK  100  A    between atoms: _220  and  _222
REMARK  101  A    between atoms: _222  and  _223
REMARK  102  A    between atoms: _222  and  _225
REMARK  103  A    between atoms: _225  and  _226
REMARK  104  A    between atoms: _226  and  _227
REMARK  105  A    between atoms: _227  and  _228
REMARK  106  A    between atoms: _228  and  _229
REMARK  107  A    between atoms: _233  and  _235
REMARK  108  A    between atoms: _235  and  _236
REMARK  109  A    between atoms: _235  and  _238
REMARK  110  A    between atoms: _238  and  _239
REMARK  111  A    between atoms: _239  and  _240
REMARK  112  A    between atoms: _242  and  _244
REMARK  113  A    between atoms: _244  and  _245
REMARK  114  A    between atoms: _244  and  _247
REMARK  115  A    between atoms: _247  and  _248
REMARK  116  A    between atoms: _251  and  _253
REMARK  117  A    between atoms: _253  and  _254
REMARK  118  A    between atoms: _253  and  _256
REMARK  119  A    between atoms: _256  and  _257
REMARK  120  A    between atoms: _257  and  _258
REMARK  121  A    between atoms: _261  and  _263
REMARK  122  A    between atoms: _263  and  _264
REMARK  123  A    between atoms: _263  and  _266
REMARK  124  A    between atoms: _269  and  _271
REMARK  125  A    between atoms: _271  and  _272
REMARK  126  A    between atoms: _271  and  _274
REMARK  127  A    between atoms: _274  and  _275
REMARK  128  A    between atoms: _275  and  _276
REMARK  129  A    between atoms: _276  and  _277
REMARK  130  A    between atoms: _286  and  _288
REMARK  131  A    between atoms: _288  and  _289
REMARK  132  A    between atoms: _288  and  _291
REMARK  133  A    between atoms: _291  and  _292
REMARK  134  A    between atoms: _297  and  _299
REMARK  135  A    between atoms: _299  and  _300
REMARK  136  A    between atoms: _299  and  _302
REMARK  137  A    between atoms: _302  and  _303
REMARK                            x       y       z     vdW  Elec       q    Type
REMARK                         _______ _______ _______ _____ _____    ______ ____
ROOT
ATOM      1  O   HOH     1     -23.139   6.572 -25.937  0.00  0.00    +0.000 OA
ENDROOT
TORSDOF 0
REMARK  Name = ../refined-set-2016/4ucc/4ucc_pocket.pdb
REMARK  137 active torsions:
REMARK  status: ('A' for Active; 'I' for Inactive)
REMARK    1  A    between atoms: _1  and  _3
REMARK    2  A    between atoms: _3  and  _4
REMARK    3  A    between atoms: _3  and  _6
REMARK    4  A    between atoms: _6  and  _7
REMARK    5  A    between atoms: _12  and  _14
REMARK    6  A    between atoms: _14  and  _15
REMARK    7  A    between atoms: _14  and  _17
REMARK    8  A    between atoms: _17  and  _18
REMARK    9  A    between atoms: _18  and  _19
REMARK   10  A    between atoms: _19  and  _20
REMARK   11  A    between atoms: _20  and  _21
REMARK   12  A    between atoms: _25  and  _27
REMARK   13  A    between atoms: _27  and  _28
REMARK   14  A    between atoms: _27  and  _30
REMARK   15  A    between atoms: _30  and  _31
REMARK   16  A    between atoms: _34  and  _36
REMARK   17  A    between atoms: _36  and  _37
REMARK   18  A    between atoms: _39  and  _41
REMARK   19  A    between atoms: _41  and  _42
REMARK   20  A    between atoms: _41  and  _44
REMARK   21  A    between atoms: _44  and  _45
REMARK   22  A    between atoms: _45  and  _46
REMARK   23  A    between atoms: _48  and  _50
REMARK   24  A    between atoms: _50  and  _51
REMARK   25  A    between atoms: _50  and  _53
REMARK   26  A    between atoms: _53  and  _54
REMARK   27  A    between atoms: _57  and  _59
REMARK   28  A    between atoms: _59  and  _60
REMARK   29  A    between atoms: _59  and  _62
REMARK   30  A    between atoms: _62  and  _63
REMARK   31  A    between atoms: _66  and  _68
REMARK   32  A    between atoms: _68  and  _69
REMARK   33  A    between atoms: _68  and  _71
REMARK   34  A    between atoms: _71  and  _72
REMARK   35  A    between atoms: _75  and  _77
REMARK   36  A    between atoms: _77  and  _78
REMARK   37  A    between atoms: _77  and  _80
REMARK   38  A    between atoms: _80  and  _81
REMARK   39  A    between atoms: _81  and  _82
REMARK   40  A    between atoms: _82  and  _83
REMARK   41  A    between atoms: _83  and  _84
REMARK   42  A    between atoms: _88  and  _90
REMARK   43  A    between atoms: _90  and  _91
REMARK   44  A    between atoms: _90  and  _93
REMARK   45  A    between atoms: _93  and  _94
REMARK   46  A    between atoms: _100  and  _102
REMARK   47  A    between atoms: _102  and  _103
REMARK   48  A    between atoms: _102  and  _105
REMARK   49  A    between atoms: _105  and  _106
REMARK   50  A    between atoms: _106  and  _107
REMARK   51  A    between atoms: _110  and  _112
REMARK   52  A    between atoms: _112  and  _113
REMARK   53  A    between atoms: _112  and  _115
REMARK   54  A    between atoms: _115  and  _116
REMARK   55  A    between atoms: _116  and  _117
REMARK   56  A    between atoms: _122  and  _124
REMARK   57  A    between atoms: _124  and  _125
REMARK   58  A    between atoms: _124  and  _127
REMARK   59  A    between atoms: _127  and  _128
REMARK   60  A    between atoms: _131  and  _133
REMARK   61  A    between atoms: _133  and  _134
REMARK   62  A    between atoms: _133  and  _136
REMARK   63  A    between atoms: _136  and  _137
REMARK   64  A    between atoms: _137  and  _138
REMARK   65  A    between atoms: _141  and  _143
REMARK   66  A    between atoms: _143  and  _144
REMARK   67  A    between atoms: _143  and  _146
REMARK   68  A    between atoms: _146  and  _147
REMARK   69  A    between atoms: _150  and  _152
REMARK   70  A    between atoms: _152  and  _153
REMARK   71  A    between atoms: _152  and  _155
REMARK   72  A    between atoms: _155  and  _156
REMARK   73  A    between atoms: _156  and  _157
REMARK   74  A    between atoms: _160  and  _162
REMARK   75  A    between atoms: _162  and  _163
REMARK   76  A    between atoms: _162  and  _165
REMARK   77  A    between atoms: _165  and  _166
REMARK   78  A    between atoms: _168  and  _170
REMARK   79  A    between atoms: _170  and  _171
REMARK   80  A    between atoms: _170  and  _173
REMARK   81  A    between atoms: _173  and  _174
REMARK   82  A    between atoms: _174  and  _175
REMARK   83  A    between atoms: _175  and  _176
REMARK   84  A    between atoms: _185  and  _187
REMARK   85  A    between atoms: _187  and  _188
REMARK   86  A    between atoms: _187  and  _190
REMARK   87  A    between atoms: _190  and  _191
REMARK   88  A    between atoms: _191  and  _192
REMARK   89  A    between atoms: _192  and  _193
REMARK   90  A    between atoms: _193  and  _194
REMARK   91  A    between atoms: _198  and  _200
REMARK   92  A    between atoms: _200  and  _201
REMARK   93  A    between atoms: _200  and  _203
REMARK   94  A    between atoms: _203  and  _204
REMARK   95  A    between atoms: _206  and  _208
REMARK   96  A    between atoms: _208  and  _209
REMARK   97  A    between atoms: _208  and  _211
REMARK   98  A    between atoms: _211  and  _212
REMARK   99  A    between atoms: _217  and  _218
REMARK  100  A    between atoms: _220  and  _222
REMARK  101  A    between atoms: _222  and  _223
REMARK  102  A    between atoms: _222  and  _225
REMARK  103  A    between atoms: _225  and  _226
REMARK  104  A    between atoms: _226  and  _227
REMARK  105  A    between atoms: _227  and  _228
REMARK  106  A    between atoms: _228  and  _229
REMARK  107  A    between atoms: _233  and  _235
REMARK  108  A    between atoms: _235  and  _236
REMARK  109  A    between atoms: _235  and  _238
REMARK  110  A    between atoms: _238  and  _239
REMARK  111  A    between atoms: _239  and  _240
REMARK  112  A    between atoms: _242  and  _244
REMARK  113  A    between atoms: _244  and  _245
REMARK  114  A    between atoms: _244  and  _247
REMARK  115  A    between atoms: _247  and  _248
REMARK  116  A    between atoms: _251  and  _253
REMARK  117  A    between atoms: _253  and  _254
REMARK  118  A    between atoms: _253  and  _256
REMARK  119  A    between atoms: _256  and  _257
REMARK  120  A    between atoms: _257  and  _258
REMARK  121  A    between atoms: _261  and  _263
REMARK  122  A    between atoms: _263  and  _264
REMARK  123  A    between atoms: _263  and  _266
REMARK  124  A    between atoms: _269  and  _271
REMARK  125  A    between atoms: _271  and  _272
REMARK  126  A    between atoms: _271  and  _274
REMARK  127  A    between atoms: _274  and  _275
REMARK  128  A    between atoms: _275  and  _276
REMARK  129  A    between atoms: _276  and  _277
REMARK  130  A    between atoms: _286  and  _288
REMARK  131  A    between atoms: _288  and  _289
REMARK  132  A    between atoms: _288  and  _291
REMARK  133  A    between atoms: _291  and  _292
REMARK  134  A    between atoms: _297  and  _299
REMARK  135  A    between atoms: _299  and  _300
REMARK  136  A    between atoms: _299  and  _302
REMARK  137  A    between atoms: _302  and  _303
REMARK                            x       y       z     vdW  Elec       q    Type
REMARK                         _______ _______ _______ _____ _____    ______ ____
ROOT
ATOM      1  O   HOH     1     -15.915   5.483 -24.166  0.00  0.00    +0.000 OA
ENDROOT
TORSDOF 0
REMARK  Name = ../refined-set-2016/4ucc/4ucc_pocket.pdb
REMARK  137 active torsions:
REMARK  status: ('A' for Active; 'I' for Inactive)
REMARK    1  A    between atoms: _1  and  _3
REMARK    2  A    between atoms: _3  and  _4
REMARK    3  A    between atoms: _3  and  _6
REMARK    4  A    between atoms: _6  and  _7
REMARK    5  A    between atoms: _12  and  _14
REMARK    6  A    between atoms: _14  and  _15
REMARK    7  A    between atoms: _14  and  _17
REMARK    8  A    between atoms: _17  and  _18
REMARK    9  A    between atoms: _18  and  _19
REMARK   10  A    between atoms: _19  and  _20
REMARK   11  A    between atoms: _20  and  _21
REMARK   12  A    between atoms: _25  and  _27
REMARK   13  A    between atoms: _27  and  _28
REMARK   14  A    between atoms: _27  and  _30
REMARK   15  A    between atoms: _30  and  _31
REMARK   16  A    between atoms: _34  and  _36
REMARK   17  A    between atoms: _36  and  _37
REMARK   18  A    between atoms: _39  and  _41
REMARK   19  A    between atoms: _41  and  _42
REMARK   20  A    between atoms: _41  and  _44
REMARK   21  A    between atoms: _44  and  _45
REMARK   22  A    between atoms: _45  and  _46
REMARK   23  A    between atoms: _48  and  _50
REMARK   24  A    between atoms: _50  and  _51
REMARK   25  A    between atoms: _50  and  _53
REMARK   26  A    between atoms: _53  and  _54
REMARK   27  A    between atoms: _57  and  _59
REMARK   28  A    between atoms: _59  and  _60
REMARK   29  A    between atoms: _59  and  _62
REMARK   30  A    between atoms: _62  and  _63
REMARK   31  A    between atoms: _66  and  _68
REMARK   32  A    between atoms: _68  and  _69
REMARK   33  A    between atoms: _68  and  _71
REMARK   34  A    between atoms: _71  and  _72
REMARK   35  A    between atoms: _75  and  _77
REMARK   36  A    between atoms: _77  and  _78
REMARK   37  A    between atoms: _77  and  _80
REMARK   38  A    between atoms: _80  and  _81
REMARK   39  A    between atoms: _81  and  _82
REMARK   40  A    between atoms: _82  and  _83
REMARK   41  A    between atoms: _83  and  _84
REMARK   42  A    between atoms: _88  and  _90
REMARK   43  A    between atoms: _90  and  _91
REMARK   44  A    between atoms: _90  and  _93
REMARK   45  A    between atoms: _93  and  _94
REMARK   46  A    between atoms: _100  and  _102
REMARK   47  A    between atoms: _102  and  _103
REMARK   48  A    between atoms: _102  and  _105
REMARK   49  A    between atoms: _105  and  _106
REMARK   50  A    between atoms: _106  and  _107
REMARK   51  A    between atoms: _110  and  _112
REMARK   52  A    between atoms: _112  and  _113
REMARK   53  A    between atoms: _112  and  _115
REMARK   54  A    between atoms: _115  and  _116
REMARK   55  A    between atoms: _116  and  _117
REMARK   56  A    between atoms: _122  and  _124
REMARK   57  A    between atoms: _124  and  _125
REMARK   58  A    between atoms: _124  and  _127
REMARK   59  A    between atoms: _127  and  _128
REMARK   60  A    between atoms: _131  and  _133
REMARK   61  A    between atoms: _133  and  _134
REMARK   62  A    between atoms: _133  and  _136
REMARK   63  A    between atoms: _136  and  _137
REMARK   64  A    between atoms: _137  and  _138
REMARK   65  A    between atoms: _141  and  _143
REMARK   66  A    between atoms: _143  and  _144
REMARK   67  A    between atoms: _143  and  _146
REMARK   68  A    between atoms: _146  and  _147
REMARK   69  A    between atoms: _150  and  _152
REMARK   70  A    between atoms: _152  and  _153
REMARK   71  A    between atoms: _152  and  _155
REMARK   72  A    between atoms: _155  and  _156
REMARK   73  A    between atoms: _156  and  _157
REMARK   74  A    between atoms: _160  and  _162
REMARK   75  A    between atoms: _162  and  _163
REMARK   76  A    between atoms: _162  and  _165
REMARK   77  A    between atoms: _165  and  _166
REMARK   78  A    between atoms: _168  and  _170
REMARK   79  A    between atoms: _170  and  _171
REMARK   80  A    between atoms: _170  and  _173
REMARK   81  A    between atoms: _173  and  _174
REMARK   82  A    between atoms: _174  and  _175
REMARK   83  A    between atoms: _175  and  _176
REMARK   84  A    between atoms: _185  and  _187
REMARK   85  A    between atoms: _187  and  _188
REMARK   86  A    between atoms: _187  and  _190
REMARK   87  A    between atoms: _190  and  _191
REMARK   88  A    between atoms: _191  and  _192
REMARK   89  A    between atoms: _192  and  _193
REMARK   90  A    between atoms: _193  and  _194
REMARK   91  A    between atoms: _198  and  _200
REMARK   92  A    between atoms: _200  and  _201
REMARK   93  A    between atoms: _200  and  _203
REMARK   94  A    between atoms: _203  and  _204
REMARK   95  A    between atoms: _206  and  _208
REMARK   96  A    between atoms: _208  and  _209
REMARK   97  A    between atoms: _208  and  _211
REMARK   98  A    between atoms: _211  and  _212
REMARK   99  A    between atoms: _217  and  _218
REMARK  100  A    between atoms: _220  and  _222
REMARK  101  A    between atoms: _222  and  _223
REMARK  102  A    between atoms: _222  and  _225
REMARK  103  A    between atoms: _225  and  _226
REMARK  104  A    between atoms: _226  and  _227
REMARK  105  A    between atoms: _227  and  _228
REMARK  106  A    between atoms: _228  and  _229
REMARK  107  A    between atoms: _233  and  _235
REMARK  108  A    between atoms: _235  and  _236
REMARK  109  A    between atoms: _235  and  _238
REMARK  110  A    between atoms: _238  and  _239
REMARK  111  A    between atoms: _239  and  _240
REMARK  112  A    between atoms: _242  and  _244
REMARK  113  A    between atoms: _244  and  _245
REMARK  114  A    between atoms: _244  and  _247
REMARK  115  A    between atoms: _247  and  _248
REMARK  116  A    between atoms: _251  and  _253
REMARK  117  A    between atoms: _253  and  _254
REMARK  118  A    between atoms: _253  and  _256
REMARK  119  A    between atoms: _256  and  _257
REMARK  120  A    between atoms: _257  and  _258
REMARK  121  A    between atoms: _261  and  _263
REMARK  122  A    between atoms: _263  and  _264
REMARK  123  A    between atoms: _263  and  _266
REMARK  124  A    between atoms: _269  and  _271
REMARK  125  A    between atoms: _271  and  _272
REMARK  126  A    between atoms: _271  and  _274
REMARK  127  A    between atoms: _274  and  _275
REMARK  128  A    between atoms: _275  and  _276
REMARK  129  A    between atoms: _276  and  _277
REMARK  130  A    between atoms: _286  and  _288
REMARK  131  A    between atoms: _288  and  _289
REMARK  132  A    between atoms: _288  and  _291
REMARK  133  A    between atoms: _291  and  _292
REMARK  134  A    between atoms: _297  and  _299
REMARK  135  A    between atoms: _299  and  _300
REMARK  136  A    between atoms: _299  and  _302
REMARK  137  A    between atoms: _302  and  _303
REMARK                            x       y       z     vdW  Elec       q    Type
REMARK                         _______ _______ _______ _____ _____    ______ ____
ROOT
ATOM      1  O   HOH     1     -19.727  20.843 -14.159  0.00  0.00    +0.000 OA
ENDROOT
TORSDOF 0
REMARK  Name = ../refined-set-2016/4ucc/4ucc_pocket.pdb
REMARK  137 active torsions:
REMARK  status: ('A' for Active; 'I' for Inactive)
REMARK    1  A    between atoms: _1  and  _3
REMARK    2  A    between atoms: _3  and  _4
REMARK    3  A    between atoms: _3  and  _6
REMARK    4  A    between atoms: _6  and  _7
REMARK    5  A    between atoms: _12  and  _14
REMARK    6  A    between atoms: _14  and  _15
REMARK    7  A    between atoms: _14  and  _17
REMARK    8  A    between atoms: _17  and  _18
REMARK    9  A    between atoms: _18  and  _19
REMARK   10  A    between atoms: _19  and  _20
REMARK   11  A    between atoms: _20  and  _21
REMARK   12  A    between atoms: _25  and  _27
REMARK   13  A    between atoms: _27  and  _28
REMARK   14  A    between atoms: _27  and  _30
REMARK   15  A    between atoms: _30  and  _31
REMARK   16  A    between atoms: _34  and  _36
REMARK   17  A    between atoms: _36  and  _37
REMARK   18  A    between atoms: _39  and  _41
REMARK   19  A    between atoms: _41  and  _42
REMARK   20  A    between atoms: _41  and  _44
REMARK   21  A    between atoms: _44  and  _45
REMARK   22  A    between atoms: _45  and  _46
REMARK   23  A    between atoms: _48  and  _50
REMARK   24  A    between atoms: _50  and  _51
REMARK   25  A    between atoms: _50  and  _53
REMARK   26  A    between atoms: _53  and  _54
REMARK   27  A    between atoms: _57  and  _59
REMARK   28  A    between atoms: _59  and  _60
REMARK   29  A    between atoms: _59  and  _62
REMARK   30  A    between atoms: _62  and  _63
REMARK   31  A    between atoms: _66  and  _68
REMARK   32  A    between atoms: _68  and  _69
REMARK   33  A    between atoms: _68  and  _71
REMARK   34  A    between atoms: _71  and  _72
REMARK   35  A    between atoms: _75  and  _77
REMARK   36  A    between atoms: _77  and  _78
REMARK   37  A    between atoms: _77  and  _80
REMARK   38  A    between atoms: _80  and  _81
REMARK   39  A    between atoms: _81  and  _82
REMARK   40  A    between atoms: _82  and  _83
REMARK   41  A    between atoms: _83  and  _84
REMARK   42  A    between atoms: _88  and  _90
REMARK   43  A    between atoms: _90  and  _91
REMARK   44  A    between atoms: _90  and  _93
REMARK   45  A    between atoms: _93  and  _94
REMARK   46  A    between atoms: _100  and  _102
REMARK   47  A    between atoms: _102  and  _103
REMARK   48  A    between atoms: _102  and  _105
REMARK   49  A    between atoms: _105  and  _106
REMARK   50  A    between atoms: _106  and  _107
REMARK   51  A    between atoms: _110  and  _112
REMARK   52  A    between atoms: _112  and  _113
REMARK   53  A    between atoms: _112  and  _115
REMARK   54  A    between atoms: _115  and  _116
REMARK   55  A    between atoms: _116  and  _117
REMARK   56  A    between atoms: _122  and  _124
REMARK   57  A    between atoms: _124  and  _125
REMARK   58  A    between atoms: _124  and  _127
REMARK   59  A    between atoms: _127  and  _128
REMARK   60  A    between atoms: _131  and  _133
REMARK   61  A    between atoms: _133  and  _134
REMARK   62  A    between atoms: _133  and  _136
REMARK   63  A    between atoms: _136  and  _137
REMARK   64  A    between atoms: _137  and  _138
REMARK   65  A    between atoms: _141  and  _143
REMARK   66  A    between atoms: _143  and  _144
REMARK   67  A    between atoms: _143  and  _146
REMARK   68  A    between atoms: _146  and  _147
REMARK   69  A    between atoms: _150  and  _152
REMARK   70  A    between atoms: _152  and  _153
REMARK   71  A    between atoms: _152  and  _155
REMARK   72  A    between atoms: _155  and  _156
REMARK   73  A    between atoms: _156  and  _157
REMARK   74  A    between atoms: _160  and  _162
REMARK   75  A    between atoms: _162  and  _163
REMARK   76  A    between atoms: _162  and  _165
REMARK   77  A    between atoms: _165  and  _166
REMARK   78  A    between atoms: _168  and  _170
REMARK   79  A    between atoms: _170  and  _171
REMARK   80  A    between atoms: _170  and  _173
REMARK   81  A    between atoms: _173  and  _174
REMARK   82  A    between atoms: _174  and  _175
REMARK   83  A    between atoms: _175  and  _176
REMARK   84  A    between atoms: _185  and  _187
REMARK   85  A    between atoms: _187  and  _188
REMARK   86  A    between atoms: _187  and  _190
REMARK   87  A    between atoms: _190  and  _191
REMARK   88  A    between atoms: _191  and  _192
REMARK   89  A    between atoms: _192  and  _193
REMARK   90  A    between atoms: _193  and  _194
REMARK   91  A    between atoms: _198  and  _200
REMARK   92  A    between atoms: _200  and  _201
REMARK   93  A    between atoms: _200  and  _203
REMARK   94  A    between atoms: _203  and  _204
REMARK   95  A    between atoms: _206  and  _208
REMARK   96  A    between atoms: _208  and  _209
REMARK   97  A    between atoms: _208  and  _211
REMARK   98  A    between atoms: _211  and  _212
REMARK   99  A    between atoms: _217  and  _218
REMARK  100  A    between atoms: _220  and  _222
REMARK  101  A    between atoms: _222  and  _223
REMARK  102  A    between atoms: _222  and  _225
REMARK  103  A    between atoms: _225  and  _226
REMARK  104  A    between atoms: _226  and  _227
REMARK  105  A    between atoms: _227  and  _228
REMARK  106  A    between atoms: _228  and  _229
REMARK  107  A    between atoms: _233  and  _235
REMARK  108  A    between atoms: _235  and  _236
REMARK  109  A    between atoms: _235  and  _238
REMARK  110  A    between atoms: _238  and  _239
REMARK  111  A    between atoms: _239  and  _240
REMARK  112  A    between atoms: _242  and  _244
REMARK  113  A    between atoms: _244  and  _245
REMARK  114  A    between atoms: _244  and  _247
REMARK  115  A    between atoms: _247  and  _248
REMARK  116  A    between atoms: _251  and  _253
REMARK  117  A    between atoms: _253  and  _254
REMARK  118  A    between atoms: _253  and  _256
REMARK  119  A    between atoms: _256  and  _257
REMARK  120  A    between atoms: _257  and  _258
REMARK  121  A    between atoms: _261  and  _263
REMARK  122  A    between atoms: _263  and  _264
REMARK  123  A    between atoms: _263  and  _266
REMARK  124  A    between atoms: _269  and  _271
REMARK  125  A    between atoms: _271  and  _272
REMARK  126  A    between atoms: _271  and  _274
REMARK  127  A    between atoms: _274  and  _275
REMARK  128  A    between atoms: _275  and  _276
REMARK  129  A    between atoms: _276  and  _277
REMARK  130  A    between atoms: _286  and  _288
REMARK  131  A    between atoms: _288  and  _289
REMARK  132  A    between atoms: _288  and  _291
REMARK  133  A    between atoms: _291  and  _292
REMARK  134  A    between atoms: _297  and  _299
REMARK  135  A    between atoms: _299  and  _300
REMARK  136  A    between atoms: _299  and  _302
REMARK  137  A    between atoms: _302  and  _303
REMARK                            x       y       z     vdW  Elec       q    Type
REMARK                         _______ _______ _______ _____ _____    ______ ____
ROOT
ATOM      1  O   HOH     1     -20.994   8.283 -19.898  0.00  0.00    +0.000 OA
ENDROOT
TORSDOF 0
REMARK  Name = ../refined-set-2016/4ucc/4ucc_pocket.pdb
REMARK  137 active torsions:
REMARK  status: ('A' for Active; 'I' for Inactive)
REMARK    1  A    between atoms: _1  and  _3
REMARK    2  A    between atoms: _3  and  _4
REMARK    3  A    between atoms: _3  and  _6
REMARK    4  A    between atoms: _6  and  _7
REMARK    5  A    between atoms: _12  and  _14
REMARK    6  A    between atoms: _14  and  _15
REMARK    7  A    between atoms: _14  and  _17
REMARK    8  A    between atoms: _17  and  _18
REMARK    9  A    between atoms: _18  and  _19
REMARK   10  A    between atoms: _19  and  _20
REMARK   11  A    between atoms: _20  and  _21
REMARK   12  A    between atoms: _25  and  _27
REMARK   13  A    between atoms: _27  and  _28
REMARK   14  A    between atoms: _27  and  _30
REMARK   15  A    between atoms: _30  and  _31
REMARK   16  A    between atoms: _34  and  _36
REMARK   17  A    between atoms: _36  and  _37
REMARK   18  A    between atoms: _39  and  _41
REMARK   19  A    between atoms: _41  and  _42
REMARK   20  A    between atoms: _41  and  _44
REMARK   21  A    between atoms: _44  and  _45
REMARK   22  A    between atoms: _45  and  _46
REMARK   23  A    between atoms: _48  and  _50
REMARK   24  A    between atoms: _50  and  _51
REMARK   25  A    between atoms: _50  and  _53
REMARK   26  A    between atoms: _53  and  _54
REMARK   27  A    between atoms: _57  and  _59
REMARK   28  A    between atoms: _59  and  _60
REMARK   29  A    between atoms: _59  and  _62
REMARK   30  A    between atoms: _62  and  _63
REMARK   31  A    between atoms: _66  and  _68
REMARK   32  A    between atoms: _68  and  _69
REMARK   33  A    between atoms: _68  and  _71
REMARK   34  A    between atoms: _71  and  _72
REMARK   35  A    between atoms: _75  and  _77
REMARK   36  A    between atoms: _77  and  _78
REMARK   37  A    between atoms: _77  and  _80
REMARK   38  A    between atoms: _80  and  _81
REMARK   39  A    between atoms: _81  and  _82
REMARK   40  A    between atoms: _82  and  _83
REMARK   41  A    between atoms: _83  and  _84
REMARK   42  A    between atoms: _88  and  _90
REMARK   43  A    between atoms: _90  and  _91
REMARK   44  A    between atoms: _90  and  _93
REMARK   45  A    between atoms: _93  and  _94
REMARK   46  A    between atoms: _100  and  _102
REMARK   47  A    between atoms: _102  and  _103
REMARK   48  A    between atoms: _102  and  _105
REMARK   49  A    between atoms: _105  and  _106
REMARK   50  A    between atoms: _106  and  _107
REMARK   51  A    between atoms: _110  and  _112
REMARK   52  A    between atoms: _112  and  _113
REMARK   53  A    between atoms: _112  and  _115
REMARK   54  A    between atoms: _115  and  _116
REMARK   55  A    between atoms: _116  and  _117
REMARK   56  A    between atoms: _122  and  _124
REMARK   57  A    between atoms: _124  and  _125
REMARK   58  A    between atoms: _124  and  _127
REMARK   59  A    between atoms: _127  and  _128
REMARK   60  A    between atoms: _131  and  _133
REMARK   61  A    between atoms: _133  and  _134
REMARK   62  A    between atoms: _133  and  _136
REMARK   63  A    between atoms: _136  and  _137
REMARK   64  A    between atoms: _137  and  _138
REMARK   65  A    between atoms: _141  and  _143
REMARK   66  A    between atoms: _143  and  _144
REMARK   67  A    between atoms: _143  and  _146
REMARK   68  A    between atoms: _146  and  _147
REMARK   69  A    between atoms: _150  and  _152
REMARK   70  A    between atoms: _152  and  _153
REMARK   71  A    between atoms: _152  and  _155
REMARK   72  A    between atoms: _155  and  _156
REMARK   73  A    between atoms: _156  and  _157
REMARK   74  A    between atoms: _160  and  _162
REMARK   75  A    between atoms: _162  and  _163
REMARK   76  A    between atoms: _162  and  _165
REMARK   77  A    between atoms: _165  and  _166
REMARK   78  A    between atoms: _168  and  _170
REMARK   79  A    between atoms: _170  and  _171
REMARK   80  A    between atoms: _170  and  _173
REMARK   81  A    between atoms: _173  and  _174
REMARK   82  A    between atoms: _174  and  _175
REMARK   83  A    between atoms: _175  and  _176
REMARK   84  A    between atoms: _185  and  _187
REMARK   85  A    between atoms: _187  and  _188
REMARK   86  A    between atoms: _187  and  _190
REMARK   87  A    between atoms: _190  and  _191
REMARK   88  A    between atoms: _191  and  _192
REMARK   89  A    between atoms: _192  and  _193
REMARK   90  A    between atoms: _193  and  _194
REMARK   91  A    between atoms: _198  and  _200
REMARK   92  A    between atoms: _200  and  _201
REMARK   93  A    between atoms: _200  and  _203
REMARK   94  A    between atoms: _203  and  _204
REMARK   95  A    between atoms: _206  and  _208
REMARK   96  A    between atoms: _208  and  _209
REMARK   97  A    between atoms: _208  and  _211
REMARK   98  A    between atoms: _211  and  _212
REMARK   99  A    between atoms: _217  and  _218
REMARK  100  A    between atoms: _220  and  _222
REMARK  101  A    between atoms: _222  and  _223
REMARK  102  A    between atoms: _222  and  _225
REMARK  103  A    between atoms: _225  and  _226
REMARK  104  A    between atoms: _226  and  _227
REMARK  105  A    between atoms: _227  and  _228
REMARK  106  A    between atoms: _228  and  _229
REMARK  107  A    between atoms: _233  and  _235
REMARK  108  A    between atoms: _235  and  _236
REMARK  109  A    between atoms: _235  and  _238
REMARK  110  A    between atoms: _238  and  _239
REMARK  111  A    between atoms: _239  and  _240
REMARK  112  A    between atoms: _242  and  _244
REMARK  113  A    between atoms: _244  and  _245
REMARK  114  A    between atoms: _244  and  _247
REMARK  115  A    between atoms: _247  and  _248
REMARK  116  A    between atoms: _251  and  _253
REMARK  117  A    between atoms: _253  and  _254
REMARK  118  A    between atoms: _253  and  _256
REMARK  119  A    between atoms: _256  and  _257
REMARK  120  A    between atoms: _257  and  _258
REMARK  121  A    between atoms: _261  and  _263
REMARK  122  A    between atoms: _263  and  _264
REMARK  123  A    between atoms: _263  and  _266
REMARK  124  A    between atoms: _269  and  _271
REMARK  125  A    between atoms: _271  and  _272
REMARK  126  A    between atoms: _271  and  _274
REMARK  127  A    between atoms: _274  and  _275
REMARK  128  A    between atoms: _275  and  _276
REMARK  129  A    between atoms: _276  and  _277
REMARK  130  A    between atoms: _286  and  _288
REMARK  131  A    between atoms: _288  and  _289
REMARK  132  A    between atoms: _288  and  _291
REMARK  133  A    between atoms: _291  and  _292
REMARK  134  A    between atoms: _297  and  _299
REMARK  135  A    between atoms: _299  and  _300
REMARK  136  A    between atoms: _299  and  _302
REMARK  137  A    between atoms: _302  and  _303
REMARK                            x       y       z     vdW  Elec       q    Type
REMARK                         _______ _______ _______ _____ _____    ______ ____
ROOT
ATOM      1  O   HOH     1     -17.211   6.775 -20.332  0.00  0.00    +0.000 OA
ENDROOT
TORSDOF 0
REMARK  Name = ../refined-set-2016/4ucc/4ucc_pocket.pdb
REMARK  137 active torsions:
REMARK  status: ('A' for Active; 'I' for Inactive)
REMARK    1  A    between atoms: _1  and  _3
REMARK    2  A    between atoms: _3  and  _4
REMARK    3  A    between atoms: _3  and  _6
REMARK    4  A    between atoms: _6  and  _7
REMARK    5  A    between atoms: _12  and  _14
REMARK    6  A    between atoms: _14  and  _15
REMARK    7  A    between atoms: _14  and  _17
REMARK    8  A    between atoms: _17  and  _18
REMARK    9  A    between atoms: _18  and  _19
REMARK   10  A    between atoms: _19  and  _20
REMARK   11  A    between atoms: _20  and  _21
REMARK   12  A    between atoms: _25  and  _27
REMARK   13  A    between atoms: _27  and  _28
REMARK   14  A    between atoms: _27  and  _30
REMARK   15  A    between atoms: _30  and  _31
REMARK   16  A    between atoms: _34  and  _36
REMARK   17  A    between atoms: _36  and  _37
REMARK   18  A    between atoms: _39  and  _41
REMARK   19  A    between atoms: _41  and  _42
REMARK   20  A    between atoms: _41  and  _44
REMARK   21  A    between atoms: _44  and  _45
REMARK   22  A    between atoms: _45  and  _46
REMARK   23  A    between atoms: _48  and  _50
REMARK   24  A    between atoms: _50  and  _51
REMARK   25  A    between atoms: _50  and  _53
REMARK   26  A    between atoms: _53  and  _54
REMARK   27  A    between atoms: _57  and  _59
REMARK   28  A    between atoms: _59  and  _60
REMARK   29  A    between atoms: _59  and  _62
REMARK   30  A    between atoms: _62  and  _63
REMARK   31  A    between atoms: _66  and  _68
REMARK   32  A    between atoms: _68  and  _69
REMARK   33  A    between atoms: _68  and  _71
REMARK   34  A    between atoms: _71  and  _72
REMARK   35  A    between atoms: _75  and  _77
REMARK   36  A    between atoms: _77  and  _78
REMARK   37  A    between atoms: _77  and  _80
REMARK   38  A    between atoms: _80  and  _81
REMARK   39  A    between atoms: _81  and  _82
REMARK   40  A    between atoms: _82  and  _83
REMARK   41  A    between atoms: _83  and  _84
REMARK   42  A    between atoms: _88  and  _90
REMARK   43  A    between atoms: _90  and  _91
REMARK   44  A    between atoms: _90  and  _93
REMARK   45  A    between atoms: _93  and  _94
REMARK   46  A    between atoms: _100  and  _102
REMARK   47  A    between atoms: _102  and  _103
REMARK   48  A    between atoms: _102  and  _105
REMARK   49  A    between atoms: _105  and  _106
REMARK   50  A    between atoms: _106  and  _107
REMARK   51  A    between atoms: _110  and  _112
REMARK   52  A    between atoms: _112  and  _113
REMARK   53  A    between atoms: _112  and  _115
REMARK   54  A    between atoms: _115  and  _116
REMARK   55  A    between atoms: _116  and  _117
REMARK   56  A    between atoms: _122  and  _124
REMARK   57  A    between atoms: _124  and  _125
REMARK   58  A    between atoms: _124  and  _127
REMARK   59  A    between atoms: _127  and  _128
REMARK   60  A    between atoms: _131  and  _133
REMARK   61  A    between atoms: _133  and  _134
REMARK   62  A    between atoms: _133  and  _136
REMARK   63  A    between atoms: _136  and  _137
REMARK   64  A    between atoms: _137  and  _138
REMARK   65  A    between atoms: _141  and  _143
REMARK   66  A    between atoms: _143  and  _144
REMARK   67  A    between atoms: _143  and  _146
REMARK   68  A    between atoms: _146  and  _147
REMARK   69  A    between atoms: _150  and  _152
REMARK   70  A    between atoms: _152  and  _153
REMARK   71  A    between atoms: _152  and  _155
REMARK   72  A    between atoms: _155  and  _156
REMARK   73  A    between atoms: _156  and  _157
REMARK   74  A    between atoms: _160  and  _162
REMARK   75  A    between atoms: _162  and  _163
REMARK   76  A    between atoms: _162  and  _165
REMARK   77  A    between atoms: _165  and  _166
REMARK   78  A    between atoms: _168  and  _170
REMARK   79  A    between atoms: _170  and  _171
REMARK   80  A    between atoms: _170  and  _173
REMARK   81  A    between atoms: _173  and  _174
REMARK   82  A    between atoms: _174  and  _175
REMARK   83  A    between atoms: _175  and  _176
REMARK   84  A    between atoms: _185  and  _187
REMARK   85  A    between atoms: _187  and  _188
REMARK   86  A    between atoms: _187  and  _190
REMARK   87  A    between atoms: _190  and  _191
REMARK   88  A    between atoms: _191  and  _192
REMARK   89  A    between atoms: _192  and  _193
REMARK   90  A    between atoms: _193  and  _194
REMARK   91  A    between atoms: _198  and  _200
REMARK   92  A    between atoms: _200  and  _201
REMARK   93  A    between atoms: _200  and  _203
REMARK   94  A    between atoms: _203  and  _204
REMARK   95  A    between atoms: _206  and  _208
REMARK   96  A    between atoms: _208  and  _209
REMARK   97  A    between atoms: _208  and  _211
REMARK   98  A    between atoms: _211  and  _212
REMARK   99  A    between atoms: _217  and  _218
REMARK  100  A    between atoms: _220  and  _222
REMARK  101  A    between atoms: _222  and  _223
REMARK  102  A    between atoms: _222  and  _225
REMARK  103  A    between atoms: _225  and  _226
REMARK  104  A    between atoms: _226  and  _227
REMARK  105  A    between atoms: _227  and  _228
REMARK  106  A    between atoms: _228  and  _229
REMARK  107  A    between atoms: _233  and  _235
REMARK  108  A    between atoms: _235  and  _236
REMARK  109  A    between atoms: _235  and  _238
REMARK  110  A    between atoms: _238  and  _239
REMARK  111  A    between atoms: _239  and  _240
REMARK  112  A    between atoms: _242  and  _244
REMARK  113  A    between atoms: _244  and  _245
REMARK  114  A    between atoms: _244  and  _247
REMARK  115  A    between atoms: _247  and  _248
REMARK  116  A    between atoms: _251  and  _253
REMARK  117  A    between atoms: _253  and  _254
REMARK  118  A    between atoms: _253  and  _256
REMARK  119  A    between atoms: _256  and  _257
REMARK  120  A    between atoms: _257  and  _258
REMARK  121  A    between atoms: _261  and  _263
REMARK  122  A    between atoms: _263  and  _264
REMARK  123  A    between atoms: _263  and  _266
REMARK  124  A    between atoms: _269  and  _271
REMARK  125  A    between atoms: _271  and  _272
REMARK  126  A    between atoms: _271  and  _274
REMARK  127  A    between atoms: _274  and  _275
REMARK  128  A    between atoms: _275  and  _276
REMARK  129  A    between atoms: _276  and  _277
REMARK  130  A    between atoms: _286  and  _288
REMARK  131  A    between atoms: _288  and  _289
REMARK  132  A    between atoms: _288  and  _291
REMARK  133  A    between atoms: _291  and  _292
REMARK  134  A    between atoms: _297  and  _299
REMARK  135  A    between atoms: _299  and  _300
REMARK  136  A    between atoms: _299  and  _302
REMARK  137  A    between atoms: _302  and  _303
REMARK                            x       y       z     vdW  Elec       q    Type
REMARK                         _______ _______ _______ _____ _____    ______ ____
ROOT
ATOM      1  O   HOH     1     -15.323   7.215 -22.149  0.00  0.00    +0.000 OA
ENDROOT
TORSDOF 0
REMARK  Name = ../refined-set-2016/4ucc/4ucc_pocket.pdb
REMARK  137 active torsions:
REMARK  status: ('A' for Active; 'I' for Inactive)
REMARK    1  A    between atoms: _1  and  _3
REMARK    2  A    between atoms: _3  and  _4
REMARK    3  A    between atoms: _3  and  _6
REMARK    4  A    between atoms: _6  and  _7
REMARK    5  A    between atoms: _12  and  _14
REMARK    6  A    between atoms: _14  and  _15
REMARK    7  A    between atoms: _14  and  _17
REMARK    8  A    between atoms: _17  and  _18
REMARK    9  A    between atoms: _18  and  _19
REMARK   10  A    between atoms: _19  and  _20
REMARK   11  A    between atoms: _20  and  _21
REMARK   12  A    between atoms: _25  and  _27
REMARK   13  A    between atoms: _27  and  _28
REMARK   14  A    between atoms: _27  and  _30
REMARK   15  A    between atoms: _30  and  _31
REMARK   16  A    between atoms: _34  and  _36
REMARK   17  A    between atoms: _36  and  _37
REMARK   18  A    between atoms: _39  and  _41
REMARK   19  A    between atoms: _41  and  _42
REMARK   20  A    between atoms: _41  and  _44
REMARK   21  A    between atoms: _44  and  _45
REMARK   22  A    between atoms: _45  and  _46
REMARK   23  A    between atoms: _48  and  _50
REMARK   24  A    between atoms: _50  and  _51
REMARK   25  A    between atoms: _50  and  _53
REMARK   26  A    between atoms: _53  and  _54
REMARK   27  A    between atoms: _57  and  _59
REMARK   28  A    between atoms: _59  and  _60
REMARK   29  A    between atoms: _59  and  _62
REMARK   30  A    between atoms: _62  and  _63
REMARK   31  A    between atoms: _66  and  _68
REMARK   32  A    between atoms: _68  and  _69
REMARK   33  A    between atoms: _68  and  _71
REMARK   34  A    between atoms: _71  and  _72
REMARK   35  A    between atoms: _75  and  _77
REMARK   36  A    between atoms: _77  and  _78
REMARK   37  A    between atoms: _77  and  _80
REMARK   38  A    between atoms: _80  and  _81
REMARK   39  A    between atoms: _81  and  _82
REMARK   40  A    between atoms: _82  and  _83
REMARK   41  A    between atoms: _83  and  _84
REMARK   42  A    between atoms: _88  and  _90
REMARK   43  A    between atoms: _90  and  _91
REMARK   44  A    between atoms: _90  and  _93
REMARK   45  A    between atoms: _93  and  _94
REMARK   46  A    between atoms: _100  and  _102
REMARK   47  A    between atoms: _102  and  _103
REMARK   48  A    between atoms: _102  and  _105
REMARK   49  A    between atoms: _105  and  _106
REMARK   50  A    between atoms: _106  and  _107
REMARK   51  A    between atoms: _110  and  _112
REMARK   52  A    between atoms: _112  and  _113
REMARK   53  A    between atoms: _112  and  _115
REMARK   54  A    between atoms: _115  and  _116
REMARK   55  A    between atoms: _116  and  _117
REMARK   56  A    between atoms: _122  and  _124
REMARK   57  A    between atoms: _124  and  _125
REMARK   58  A    between atoms: _124  and  _127
REMARK   59  A    between atoms: _127  and  _128
REMARK   60  A    between atoms: _131  and  _133
REMARK   61  A    between atoms: _133  and  _134
REMARK   62  A    between atoms: _133  and  _136
REMARK   63  A    between atoms: _136  and  _137
REMARK   64  A    between atoms: _137  and  _138
REMARK   65  A    between atoms: _141  and  _143
REMARK   66  A    between atoms: _143  and  _144
REMARK   67  A    between atoms: _143  and  _146
REMARK   68  A    between atoms: _146  and  _147
REMARK   69  A    between atoms: _150  and  _152
REMARK   70  A    between atoms: _152  and  _153
REMARK   71  A    between atoms: _152  and  _155
REMARK   72  A    between atoms: _155  and  _156
REMARK   73  A    between atoms: _156  and  _157
REMARK   74  A    between atoms: _160  and  _162
REMARK   75  A    between atoms: _162  and  _163
REMARK   76  A    between atoms: _162  and  _165
REMARK   77  A    between atoms: _165  and  _166
REMARK   78  A    between atoms: _168  and  _170
REMARK   79  A    between atoms: _170  and  _171
REMARK   80  A    between atoms: _170  and  _173
REMARK   81  A    between atoms: _173  and  _174
REMARK   82  A    between atoms: _174  and  _175
REMARK   83  A    between atoms: _175  and  _176
REMARK   84  A    between atoms: _185  and  _187
REMARK   85  A    between atoms: _187  and  _188
REMARK   86  A    between atoms: _187  and  _190
REMARK   87  A    between atoms: _190  and  _191
REMARK   88  A    between atoms: _191  and  _192
REMARK   89  A    between atoms: _192  and  _193
REMARK   90  A    between atoms: _193  and  _194
REMARK   91  A    between atoms: _198  and  _200
REMARK   92  A    between atoms: _200  and  _201
REMARK   93  A    between atoms: _200  and  _203
REMARK   94  A    between atoms: _203  and  _204
REMARK   95  A    between atoms: _206  and  _208
REMARK   96  A    between atoms: _208  and  _209
REMARK   97  A    between atoms: _208  and  _211
REMARK   98  A    between atoms: _211  and  _212
REMARK   99  A    between atoms: _217  and  _218
REMARK  100  A    between atoms: _220  and  _222
REMARK  101  A    between atoms: _222  and  _223
REMARK  102  A    between atoms: _222  and  _225
REMARK  103  A    between atoms: _225  and  _226
REMARK  104  A    between atoms: _226  and  _227
REMARK  105  A    between atoms: _227  and  _228
REMARK  106  A    between atoms: _228  and  _229
REMARK  107  A    between atoms: _233  and  _235
REMARK  108  A    between atoms: _235  and  _236
REMARK  109  A    between atoms: _235  and  _238
REMARK  110  A    between atoms: _238  and  _239
REMARK  111  A    between atoms: _239  and  _240
REMARK  112  A    between atoms: _242  and  _244
REMARK  113  A    between atoms: _244  and  _245
REMARK  114  A    between atoms: _244  and  _247
REMARK  115  A    between atoms: _247  and  _248
REMARK  116  A    between atoms: _251  and  _253
REMARK  117  A    between atoms: _253  and  _254
REMARK  118  A    between atoms: _253  and  _256
REMARK  119  A    between atoms: _256  and  _257
REMARK  120  A    between atoms: _257  and  _258
REMARK  121  A    between atoms: _261  and  _263
REMARK  122  A    between atoms: _263  and  _264
REMARK  123  A    between atoms: _263  and  _266
REMARK  124  A    between atoms: _269  and  _271
REMARK  125  A    between atoms: _271  and  _272
REMARK  126  A    between atoms: _271  and  _274
REMARK  127  A    between atoms: _274  and  _275
REMARK  128  A    between atoms: _275  and  _276
REMARK  129  A    between atoms: _276  and  _277
REMARK  130  A    between atoms: _286  and  _288
REMARK  131  A    between atoms: _288  and  _289
REMARK  132  A    between atoms: _288  and  _291
REMARK  133  A    between atoms: _291  and  _292
REMARK  134  A    between atoms: _297  and  _299
REMARK  135  A    between atoms: _299  and  _300
REMARK  136  A    between atoms: _299  and  _302
REMARK  137  A    between atoms: _302  and  _303
REMARK                            x       y       z     vdW  Elec       q    Type
REMARK                         _______ _______ _______ _____ _____    ______ ____
ROOT
ATOM      1  O   HOH     1     -18.437  18.790 -15.422  0.00  0.00    +0.000 OA
ENDROOT
TORSDOF 0
REMARK  Name = ../refined-set-2016/4ucc/4ucc_pocket.pdb
REMARK  137 active torsions:
REMARK  status: ('A' for Active; 'I' for Inactive)
REMARK    1  A    between atoms: _1  and  _3
REMARK    2  A    between atoms: _3  and  _4
REMARK    3  A    between atoms: _3  and  _6
REMARK    4  A    between atoms: _6  and  _7
REMARK    5  A    between atoms: _12  and  _14
REMARK    6  A    between atoms: _14  and  _15
REMARK    7  A    between atoms: _14  and  _17
REMARK    8  A    between atoms: _17  and  _18
REMARK    9  A    between atoms: _18  and  _19
REMARK   10  A    between atoms: _19  and  _20
REMARK   11  A    between atoms: _20  and  _21
REMARK   12  A    between atoms: _25  and  _27
REMARK   13  A    between atoms: _27  and  _28
REMARK   14  A    between atoms: _27  and  _30
REMARK   15  A    between atoms: _30  and  _31
REMARK   16  A    between atoms: _34  and  _36
REMARK   17  A    between atoms: _36  and  _37
REMARK   18  A    between atoms: _39  and  _41
REMARK   19  A    between atoms: _41  and  _42
REMARK   20  A    between atoms: _41  and  _44
REMARK   21  A    between atoms: _44  and  _45
REMARK   22  A    between atoms: _45  and  _46
REMARK   23  A    between atoms: _48  and  _50
REMARK   24  A    between atoms: _50  and  _51
REMARK   25  A    between atoms: _50  and  _53
REMARK   26  A    between atoms: _53  and  _54
REMARK   27  A    between atoms: _57  and  _59
REMARK   28  A    between atoms: _59  and  _60
REMARK   29  A    between atoms: _59  and  _62
REMARK   30  A    between atoms: _62  and  _63
REMARK   31  A    between atoms: _66  and  _68
REMARK   32  A    between atoms: _68  and  _69
REMARK   33  A    between atoms: _68  and  _71
REMARK   34  A    between atoms: _71  and  _72
REMARK   35  A    between atoms: _75  and  _77
REMARK   36  A    between atoms: _77  and  _78
REMARK   37  A    between atoms: _77  and  _80
REMARK   38  A    between atoms: _80  and  _81
REMARK   39  A    between atoms: _81  and  _82
REMARK   40  A    between atoms: _82  and  _83
REMARK   41  A    between atoms: _83  and  _84
REMARK   42  A    between atoms: _88  and  _90
REMARK   43  A    between atoms: _90  and  _91
REMARK   44  A    between atoms: _90  and  _93
REMARK   45  A    between atoms: _93  and  _94
REMARK   46  A    between atoms: _100  and  _102
REMARK   47  A    between atoms: _102  and  _103
REMARK   48  A    between atoms: _102  and  _105
REMARK   49  A    between atoms: _105  and  _106
REMARK   50  A    between atoms: _106  and  _107
REMARK   51  A    between atoms: _110  and  _112
REMARK   52  A    between atoms: _112  and  _113
REMARK   53  A    between atoms: _112  and  _115
REMARK   54  A    between atoms: _115  and  _116
REMARK   55  A    between atoms: _116  and  _117
REMARK   56  A    between atoms: _122  and  _124
REMARK   57  A    between atoms: _124  and  _125
REMARK   58  A    between atoms: _124  and  _127
REMARK   59  A    between atoms: _127  and  _128
REMARK   60  A    between atoms: _131  and  _133
REMARK   61  A    between atoms: _133  and  _134
REMARK   62  A    between atoms: _133  and  _136
REMARK   63  A    between atoms: _136  and  _137
REMARK   64  A    between atoms: _137  and  _138
REMARK   65  A    between atoms: _141  and  _143
REMARK   66  A    between atoms: _143  and  _144
REMARK   67  A    between atoms: _143  and  _146
REMARK   68  A    between atoms: _146  and  _147
REMARK   69  A    between atoms: _150  and  _152
REMARK   70  A    between atoms: _152  and  _153
REMARK   71  A    between atoms: _152  and  _155
REMARK   72  A    between atoms: _155  and  _156
REMARK   73  A    between atoms: _156  and  _157
REMARK   74  A    between atoms: _160  and  _162
REMARK   75  A    between atoms: _162  and  _163
REMARK   76  A    between atoms: _162  and  _165
REMARK   77  A    between atoms: _165  and  _166
REMARK   78  A    between atoms: _168  and  _170
REMARK   79  A    between atoms: _170  and  _171
REMARK   80  A    between atoms: _170  and  _173
REMARK   81  A    between atoms: _173  and  _174
REMARK   82  A    between atoms: _174  and  _175
REMARK   83  A    between atoms: _175  and  _176
REMARK   84  A    between atoms: _185  and  _187
REMARK   85  A    between atoms: _187  and  _188
REMARK   86  A    between atoms: _187  and  _190
REMARK   87  A    between atoms: _190  and  _191
REMARK   88  A    between atoms: _191  and  _192
REMARK   89  A    between atoms: _192  and  _193
REMARK   90  A    between atoms: _193  and  _194
REMARK   91  A    between atoms: _198  and  _200
REMARK   92  A    between atoms: _200  and  _201
REMARK   93  A    between atoms: _200  and  _203
REMARK   94  A    between atoms: _203  and  _204
REMARK   95  A    between atoms: _206  and  _208
REMARK   96  A    between atoms: _208  and  _209
REMARK   97  A    between atoms: _208  and  _211
REMARK   98  A    between atoms: _211  and  _212
REMARK   99  A    between atoms: _217  and  _218
REMARK  100  A    between atoms: _220  and  _222
REMARK  101  A    between atoms: _222  and  _223
REMARK  102  A    between atoms: _222  and  _225
REMARK  103  A    between atoms: _225  and  _226
REMARK  104  A    between atoms: _226  and  _227
REMARK  105  A    between atoms: _227  and  _228
REMARK  106  A    between atoms: _228  and  _229
REMARK  107  A    between atoms: _233  and  _235
REMARK  108  A    between atoms: _235  and  _236
REMARK  109  A    between atoms: _235  and  _238
REMARK  110  A    between atoms: _238  and  _239
REMARK  111  A    between atoms: _239  and  _240
REMARK  112  A    between atoms: _242  and  _244
REMARK  113  A    between atoms: _244  and  _245
REMARK  114  A    between atoms: _244  and  _247
REMARK  115  A    between atoms: _247  and  _248
REMARK  116  A    between atoms: _251  and  _253
REMARK  117  A    between atoms: _253  and  _254
REMARK  118  A    between atoms: _253  and  _256
REMARK  119  A    between atoms: _256  and  _257
REMARK  120  A    between atoms: _257  and  _258
REMARK  121  A    between atoms: _261  and  _263
REMARK  122  A    between atoms: _263  and  _264
REMARK  123  A    between atoms: _263  and  _266
REMARK  124  A    between atoms: _269  and  _271
REMARK  125  A    between atoms: _271  and  _272
REMARK  126  A    between atoms: _271  and  _274
REMARK  127  A    between atoms: _274  and  _275
REMARK  128  A    between atoms: _275  and  _276
REMARK  129  A    between atoms: _276  and  _277
REMARK  130  A    between atoms: _286  and  _288
REMARK  131  A    between atoms: _288  and  _289
REMARK  132  A    between atoms: _288  and  _291
REMARK  133  A    between atoms: _291  and  _292
REMARK  134  A    between atoms: _297  and  _299
REMARK  135  A    between atoms: _299  and  _300
REMARK  136  A    between atoms: _299  and  _302
REMARK  137  A    between atoms: _302  and  _303
REMARK                            x       y       z     vdW  Elec       q    Type
REMARK                         _______ _______ _______ _____ _____    ______ ____
ROOT
ATOM      1  O   HOH     1     -23.977  14.709 -18.018  0.00  0.00    +0.000 OA
ENDROOT
TORSDOF 0
REMARK  Name = ../refined-set-2016/4ucc/4ucc_pocket.pdb
REMARK  137 active torsions:
REMARK  status: ('A' for Active; 'I' for Inactive)
REMARK    1  A    between atoms: _1  and  _3
REMARK    2  A    between atoms: _3  and  _4
REMARK    3  A    between atoms: _3  and  _6
REMARK    4  A    between atoms: _6  and  _7
REMARK    5  A    between atoms: _12  and  _14
REMARK    6  A    between atoms: _14  and  _15
REMARK    7  A    between atoms: _14  and  _17
REMARK    8  A    between atoms: _17  and  _18
REMARK    9  A    between atoms: _18  and  _19
REMARK   10  A    between atoms: _19  and  _20
REMARK   11  A    between atoms: _20  and  _21
REMARK   12  A    between atoms: _25  and  _27
REMARK   13  A    between atoms: _27  and  _28
REMARK   14  A    between atoms: _27  and  _30
REMARK   15  A    between atoms: _30  and  _31
REMARK   16  A    between atoms: _34  and  _36
REMARK   17  A    between atoms: _36  and  _37
REMARK   18  A    between atoms: _39  and  _41
REMARK   19  A    between atoms: _41  and  _42
REMARK   20  A    between atoms: _41  and  _44
REMARK   21  A    between atoms: _44  and  _45
REMARK   22  A    between atoms: _45  and  _46
REMARK   23  A    between atoms: _48  and  _50
REMARK   24  A    between atoms: _50  and  _51
REMARK   25  A    between atoms: _50  and  _53
REMARK   26  A    between atoms: _53  and  _54
REMARK   27  A    between atoms: _57  and  _59
REMARK   28  A    between atoms: _59  and  _60
REMARK   29  A    between atoms: _59  and  _62
REMARK   30  A    between atoms: _62  and  _63
REMARK   31  A    between atoms: _66  and  _68
REMARK   32  A    between atoms: _68  and  _69
REMARK   33  A    between atoms: _68  and  _71
REMARK   34  A    between atoms: _71  and  _72
REMARK   35  A    between atoms: _75  and  _77
REMARK   36  A    between atoms: _77  and  _78
REMARK   37  A    between atoms: _77  and  _80
REMARK   38  A    between atoms: _80  and  _81
REMARK   39  A    between atoms: _81  and  _82
REMARK   40  A    between atoms: _82  and  _83
REMARK   41  A    between atoms: _83  and  _84
REMARK   42  A    between atoms: _88  and  _90
REMARK   43  A    between atoms: _90  and  _91
REMARK   44  A    between atoms: _90  and  _93
REMARK   45  A    between atoms: _93  and  _94
REMARK   46  A    between atoms: _100  and  _102
REMARK   47  A    between atoms: _102  and  _103
REMARK   48  A    between atoms: _102  and  _105
REMARK   49  A    between atoms: _105  and  _106
REMARK   50  A    between atoms: _106  and  _107
REMARK   51  A    between atoms: _110  and  _112
REMARK   52  A    between atoms: _112  and  _113
REMARK   53  A    between atoms: _112  and  _115
REMARK   54  A    between atoms: _115  and  _116
REMARK   55  A    between atoms: _116  and  _117
REMARK   56  A    between atoms: _122  and  _124
REMARK   57  A    between atoms: _124  and  _125
REMARK   58  A    between atoms: _124  and  _127
REMARK   59  A    between atoms: _127  and  _128
REMARK   60  A    between atoms: _131  and  _133
REMARK   61  A    between atoms: _133  and  _134
REMARK   62  A    between atoms: _133  and  _136
REMARK   63  A    between atoms: _136  and  _137
REMARK   64  A    between atoms: _137  and  _138
REMARK   65  A    between atoms: _141  and  _143
REMARK   66  A    between atoms: _143  and  _144
REMARK   67  A    between atoms: _143  and  _146
REMARK   68  A    between atoms: _146  and  _147
REMARK   69  A    between atoms: _150  and  _152
REMARK   70  A    between atoms: _152  and  _153
REMARK   71  A    between atoms: _152  and  _155
REMARK   72  A    between atoms: _155  and  _156
REMARK   73  A    between atoms: _156  and  _157
REMARK   74  A    between atoms: _160  and  _162
REMARK   75  A    between atoms: _162  and  _163
REMARK   76  A    between atoms: _162  and  _165
REMARK   77  A    between atoms: _165  and  _166
REMARK   78  A    between atoms: _168  and  _170
REMARK   79  A    between atoms: _170  and  _171
REMARK   80  A    between atoms: _170  and  _173
REMARK   81  A    between atoms: _173  and  _174
REMARK   82  A    between atoms: _174  and  _175
REMARK   83  A    between atoms: _175  and  _176
REMARK   84  A    between atoms: _185  and  _187
REMARK   85  A    between atoms: _187  and  _188
REMARK   86  A    between atoms: _187  and  _190
REMARK   87  A    between atoms: _190  and  _191
REMARK   88  A    between atoms: _191  and  _192
REMARK   89  A    between atoms: _192  and  _193
REMARK   90  A    between atoms: _193  and  _194
REMARK   91  A    between atoms: _198  and  _200
REMARK   92  A    between atoms: _200  and  _201
REMARK   93  A    between atoms: _200  and  _203
REMARK   94  A    between atoms: _203  and  _204
REMARK   95  A    between atoms: _206  and  _208
REMARK   96  A    between atoms: _208  and  _209
REMARK   97  A    between atoms: _208  and  _211
REMARK   98  A    between atoms: _211  and  _212
REMARK   99  A    between atoms: _217  and  _218
REMARK  100  A    between atoms: _220  and  _222
REMARK  101  A    between atoms: _222  and  _223
REMARK  102  A    between atoms: _222  and  _225
REMARK  103  A    between atoms: _225  and  _226
REMARK  104  A    between atoms: _226  and  _227
REMARK  105  A    between atoms: _227  and  _228
REMARK  106  A    between atoms: _228  and  _229
REMARK  107  A    between atoms: _233  and  _235
REMARK  108  A    between atoms: _235  and  _236
REMARK  109  A    between atoms: _235  and  _238
REMARK  110  A    between atoms: _238  and  _239
REMARK  111  A    between atoms: _239  and  _240
REMARK  112  A    between atoms: _242  and  _244
REMARK  113  A    between atoms: _244  and  _245
REMARK  114  A    between atoms: _244  and  _247
REMARK  115  A    between atoms: _247  and  _248
REMARK  116  A    between atoms: _251  and  _253
REMARK  117  A    between atoms: _253  and  _254
REMARK  118  A    between atoms: _253  and  _256
REMARK  119  A    between atoms: _256  and  _257
REMARK  120  A    between atoms: _257  and  _258
REMARK  121  A    between atoms: _261  and  _263
REMARK  122  A    between atoms: _263  and  _264
REMARK  123  A    between atoms: _263  and  _266
REMARK  124  A    between atoms: _269  and  _271
REMARK  125  A    between atoms: _271  and  _272
REMARK  126  A    between atoms: _271  and  _274
REMARK  127  A    between atoms: _274  and  _275
REMARK  128  A    between atoms: _275  and  _276
REMARK  129  A    between atoms: _276  and  _277
REMARK  130  A    between atoms: _286  and  _288
REMARK  131  A    between atoms: _288  and  _289
REMARK  132  A    between atoms: _288  and  _291
REMARK  133  A    between atoms: _291  and  _292
REMARK  134  A    between atoms: _297  and  _299
REMARK  135  A    between atoms: _299  and  _300
REMARK  136  A    between atoms: _299  and  _302
REMARK  137  A    between atoms: _302  and  _303
REMARK                            x       y       z     vdW  Elec       q    Type
REMARK                         _______ _______ _______ _____ _____    ______ ____
ROOT
ATOM      1  O   HOH     1     -24.006  11.758 -19.027  0.00  0.00    +0.000 OA
ENDROOT
TORSDOF 0
REMARK  Name = ../refined-set-2016/4ucc/4ucc_pocket.pdb
REMARK  137 active torsions:
REMARK  status: ('A' for Active; 'I' for Inactive)
REMARK    1  A    between atoms: _1  and  _3
REMARK    2  A    between atoms: _3  and  _4
REMARK    3  A    between atoms: _3  and  _6
REMARK    4  A    between atoms: _6  and  _7
REMARK    5  A    between atoms: _12  and  _14
REMARK    6  A    between atoms: _14  and  _15
REMARK    7  A    between atoms: _14  and  _17
REMARK    8  A    between atoms: _17  and  _18
REMARK    9  A    between atoms: _18  and  _19
REMARK   10  A    between atoms: _19  and  _20
REMARK   11  A    between atoms: _20  and  _21
REMARK   12  A    between atoms: _25  and  _27
REMARK   13  A    between atoms: _27  and  _28
REMARK   14  A    between atoms: _27  and  _30
REMARK   15  A    between atoms: _30  and  _31
REMARK   16  A    between atoms: _34  and  _36
REMARK   17  A    between atoms: _36  and  _37
REMARK   18  A    between atoms: _39  and  _41
REMARK   19  A    between atoms: _41  and  _42
REMARK   20  A    between atoms: _41  and  _44
REMARK   21  A    between atoms: _44  and  _45
REMARK   22  A    between atoms: _45  and  _46
REMARK   23  A    between atoms: _48  and  _50
REMARK   24  A    between atoms: _50  and  _51
REMARK   25  A    between atoms: _50  and  _53
REMARK   26  A    between atoms: _53  and  _54
REMARK   27  A    between atoms: _57  and  _59
REMARK   28  A    between atoms: _59  and  _60
REMARK   29  A    between atoms: _59  and  _62
REMARK   30  A    between atoms: _62  and  _63
REMARK   31  A    between atoms: _66  and  _68
REMARK   32  A    between atoms: _68  and  _69
REMARK   33  A    between atoms: _68  and  _71
REMARK   34  A    between atoms: _71  and  _72
REMARK   35  A    between atoms: _75  and  _77
REMARK   36  A    between atoms: _77  and  _78
REMARK   37  A    between atoms: _77  and  _80
REMARK   38  A    between atoms: _80  and  _81
REMARK   39  A    between atoms: _81  and  _82
REMARK   40  A    between atoms: _82  and  _83
REMARK   41  A    between atoms: _83  and  _84
REMARK   42  A    between atoms: _88  and  _90
REMARK   43  A    between atoms: _90  and  _91
REMARK   44  A    between atoms: _90  and  _93
REMARK   45  A    between atoms: _93  and  _94
REMARK   46  A    between atoms: _100  and  _102
REMARK   47  A    between atoms: _102  and  _103
REMARK   48  A    between atoms: _102  and  _105
REMARK   49  A    between atoms: _105  and  _106
REMARK   50  A    between atoms: _106  and  _107
REMARK   51  A    between atoms: _110  and  _112
REMARK   52  A    between atoms: _112  and  _113
REMARK   53  A    between atoms: _112  and  _115
REMARK   54  A    between atoms: _115  and  _116
REMARK   55  A    between atoms: _116  and  _117
REMARK   56  A    between atoms: _122  and  _124
REMARK   57  A    between atoms: _124  and  _125
REMARK   58  A    between atoms: _124  and  _127
REMARK   59  A    between atoms: _127  and  _128
REMARK   60  A    between atoms: _131  and  _133
REMARK   61  A    between atoms: _133  and  _134
REMARK   62  A    between atoms: _133  and  _136
REMARK   63  A    between atoms: _136  and  _137
REMARK   64  A    between atoms: _137  and  _138
REMARK   65  A    between atoms: _141  and  _143
REMARK   66  A    between atoms: _143  and  _144
REMARK   67  A    between atoms: _143  and  _146
REMARK   68  A    between atoms: _146  and  _147
REMARK   69  A    between atoms: _150  and  _152
REMARK   70  A    between atoms: _152  and  _153
REMARK   71  A    between atoms: _152  and  _155
REMARK   72  A    between atoms: _155  and  _156
REMARK   73  A    between atoms: _156  and  _157
REMARK   74  A    between atoms: _160  and  _162
REMARK   75  A    between atoms: _162  and  _163
REMARK   76  A    between atoms: _162  and  _165
REMARK   77  A    between atoms: _165  and  _166
REMARK   78  A    between atoms: _168  and  _170
REMARK   79  A    between atoms: _170  and  _171
REMARK   80  A    between atoms: _170  and  _173
REMARK   81  A    between atoms: _173  and  _174
REMARK   82  A    between atoms: _174  and  _175
REMARK   83  A    between atoms: _175  and  _176
REMARK   84  A    between atoms: _185  and  _187
REMARK   85  A    between atoms: _187  and  _188
REMARK   86  A    between atoms: _187  and  _190
REMARK   87  A    between atoms: _190  and  _191
REMARK   88  A    between atoms: _191  and  _192
REMARK   89  A    between atoms: _192  and  _193
REMARK   90  A    between atoms: _193  and  _194
REMARK   91  A    between atoms: _198  and  _200
REMARK   92  A    between atoms: _200  and  _201
REMARK   93  A    between atoms: _200  and  _203
REMARK   94  A    between atoms: _203  and  _204
REMARK   95  A    between atoms: _206  and  _208
REMARK   96  A    between atoms: _208  and  _209
REMARK   97  A    between atoms: _208  and  _211
REMARK   98  A    between atoms: _211  and  _212
REMARK   99  A    between atoms: _217  and  _218
REMARK  100  A    between atoms: _220  and  _222
REMARK  101  A    between atoms: _222  and  _223
REMARK  102  A    between atoms: _222  and  _225
REMARK  103  A    between atoms: _225  and  _226
REMARK  104  A    between atoms: _226  and  _227
REMARK  105  A    between atoms: _227  and  _228
REMARK  106  A    between atoms: _228  and  _229
REMARK  107  A    between atoms: _233  and  _235
REMARK  108  A    between atoms: _235  and  _236
REMARK  109  A    between atoms: _235  and  _238
REMARK  110  A    between atoms: _238  and  _239
REMARK  111  A    between atoms: _239  and  _240
REMARK  112  A    between atoms: _242  and  _244
REMARK  113  A    between atoms: _244  and  _245
REMARK  114  A    between atoms: _244  and  _247
REMARK  115  A    between atoms: _247  and  _248
REMARK  116  A    between atoms: _251  and  _253
REMARK  117  A    between atoms: _253  and  _254
REMARK  118  A    between atoms: _253  and  _256
REMARK  119  A    between atoms: _256  and  _257
REMARK  120  A    between atoms: _257  and  _258
REMARK  121  A    between atoms: _261  and  _263
REMARK  122  A    between atoms: _263  and  _264
REMARK  123  A    between atoms: _263  and  _266
REMARK  124  A    between atoms: _269  and  _271
REMARK  125  A    between atoms: _271  and  _272
REMARK  126  A    between atoms: _271  and  _274
REMARK  127  A    between atoms: _274  and  _275
REMARK  128  A    between atoms: _275  and  _276
REMARK  129  A    between atoms: _276  and  _277
REMARK  130  A    between atoms: _286  and  _288
REMARK  131  A    between atoms: _288  and  _289
REMARK  132  A    between atoms: _288  and  _291
REMARK  133  A    between atoms: _291  and  _292
REMARK  134  A    between atoms: _297  and  _299
REMARK  135  A    between atoms: _299  and  _300
REMARK  136  A    between atoms: _299  and  _302
REMARK  137  A    between atoms: _302  and  _303
REMARK                            x       y       z     vdW  Elec       q    Type
REMARK                         _______ _______ _______ _____ _____    ______ ____
ROOT
ATOM      1  O   HOH     1     -23.783  21.690 -18.551  0.00  0.00    +0.000 OA
ENDROOT
TORSDOF 0
REMARK  Name = ../refined-set-2016/4ucc/4ucc_pocket.pdb
REMARK  137 active torsions:
REMARK  status: ('A' for Active; 'I' for Inactive)
REMARK    1  A    between atoms: _1  and  _3
REMARK    2  A    between atoms: _3  and  _4
REMARK    3  A    between atoms: _3  and  _6
REMARK    4  A    between atoms: _6  and  _7
REMARK    5  A    between atoms: _12  and  _14
REMARK    6  A    between atoms: _14  and  _15
REMARK    7  A    between atoms: _14  and  _17
REMARK    8  A    between atoms: _17  and  _18
REMARK    9  A    between atoms: _18  and  _19
REMARK   10  A    between atoms: _19  and  _20
REMARK   11  A    between atoms: _20  and  _21
REMARK   12  A    between atoms: _25  and  _27
REMARK   13  A    between atoms: _27  and  _28
REMARK   14  A    between atoms: _27  and  _30
REMARK   15  A    between atoms: _30  and  _31
REMARK   16  A    between atoms: _34  and  _36
REMARK   17  A    between atoms: _36  and  _37
REMARK   18  A    between atoms: _39  and  _41
REMARK   19  A    between atoms: _41  and  _42
REMARK   20  A    between atoms: _41  and  _44
REMARK   21  A    between atoms: _44  and  _45
REMARK   22  A    between atoms: _45  and  _46
REMARK   23  A    between atoms: _48  and  _50
REMARK   24  A    between atoms: _50  and  _51
REMARK   25  A    between atoms: _50  and  _53
REMARK   26  A    between atoms: _53  and  _54
REMARK   27  A    between atoms: _57  and  _59
REMARK   28  A    between atoms: _59  and  _60
REMARK   29  A    between atoms: _59  and  _62
REMARK   30  A    between atoms: _62  and  _63
REMARK   31  A    between atoms: _66  and  _68
REMARK   32  A    between atoms: _68  and  _69
REMARK   33  A    between atoms: _68  and  _71
REMARK   34  A    between atoms: _71  and  _72
REMARK   35  A    between atoms: _75  and  _77
REMARK   36  A    between atoms: _77  and  _78
REMARK   37  A    between atoms: _77  and  _80
REMARK   38  A    between atoms: _80  and  _81
REMARK   39  A    between atoms: _81  and  _82
REMARK   40  A    between atoms: _82  and  _83
REMARK   41  A    between atoms: _83  and  _84
REMARK   42  A    between atoms: _88  and  _90
REMARK   43  A    between atoms: _90  and  _91
REMARK   44  A    between atoms: _90  and  _93
REMARK   45  A    between atoms: _93  and  _94
REMARK   46  A    between atoms: _100  and  _102
REMARK   47  A    between atoms: _102  and  _103
REMARK   48  A    between atoms: _102  and  _105
REMARK   49  A    between atoms: _105  and  _106
REMARK   50  A    between atoms: _106  and  _107
REMARK   51  A    between atoms: _110  and  _112
REMARK   52  A    between atoms: _112  and  _113
REMARK   53  A    between atoms: _112  and  _115
REMARK   54  A    between atoms: _115  and  _116
REMARK   55  A    between atoms: _116  and  _117
REMARK   56  A    between atoms: _122  and  _124
REMARK   57  A    between atoms: _124  and  _125
REMARK   58  A    between atoms: _124  and  _127
REMARK   59  A    between atoms: _127  and  _128
REMARK   60  A    between atoms: _131  and  _133
REMARK   61  A    between atoms: _133  and  _134
REMARK   62  A    between atoms: _133  and  _136
REMARK   63  A    between atoms: _136  and  _137
REMARK   64  A    between atoms: _137  and  _138
REMARK   65  A    between atoms: _141  and  _143
REMARK   66  A    between atoms: _143  and  _144
REMARK   67  A    between atoms: _143  and  _146
REMARK   68  A    between atoms: _146  and  _147
REMARK   69  A    between atoms: _150  and  _152
REMARK   70  A    between atoms: _152  and  _153
REMARK   71  A    between atoms: _152  and  _155
REMARK   72  A    between atoms: _155  and  _156
REMARK   73  A    between atoms: _156  and  _157
REMARK   74  A    between atoms: _160  and  _162
REMARK   75  A    between atoms: _162  and  _163
REMARK   76  A    between atoms: _162  and  _165
REMARK   77  A    between atoms: _165  and  _166
REMARK   78  A    between atoms: _168  and  _170
REMARK   79  A    between atoms: _170  and  _171
REMARK   80  A    between atoms: _170  and  _173
REMARK   81  A    between atoms: _173  and  _174
REMARK   82  A    between atoms: _174  and  _175
REMARK   83  A    between atoms: _175  and  _176
REMARK   84  A    between atoms: _185  and  _187
REMARK   85  A    between atoms: _187  and  _188
REMARK   86  A    between atoms: _187  and  _190
REMARK   87  A    between atoms: _190  and  _191
REMARK   88  A    between atoms: _191  and  _192
REMARK   89  A    between atoms: _192  and  _193
REMARK   90  A    between atoms: _193  and  _194
REMARK   91  A    between atoms: _198  and  _200
REMARK   92  A    between atoms: _200  and  _201
REMARK   93  A    between atoms: _200  and  _203
REMARK   94  A    between atoms: _203  and  _204
REMARK   95  A    between atoms: _206  and  _208
REMARK   96  A    between atoms: _208  and  _209
REMARK   97  A    between atoms: _208  and  _211
REMARK   98  A    between atoms: _211  and  _212
REMARK   99  A    between atoms: _217  and  _218
REMARK  100  A    between atoms: _220  and  _222
REMARK  101  A    between atoms: _222  and  _223
REMARK  102  A    between atoms: _222  and  _225
REMARK  103  A    between atoms: _225  and  _226
REMARK  104  A    between atoms: _226  and  _227
REMARK  105  A    between atoms: _227  and  _228
REMARK  106  A    between atoms: _228  and  _229
REMARK  107  A    between atoms: _233  and  _235
REMARK  108  A    between atoms: _235  and  _236
REMARK  109  A    between atoms: _235  and  _238
REMARK  110  A    between atoms: _238  and  _239
REMARK  111  A    between atoms: _239  and  _240
REMARK  112  A    between atoms: _242  and  _244
REMARK  113  A    between atoms: _244  and  _245
REMARK  114  A    between atoms: _244  and  _247
REMARK  115  A    between atoms: _247  and  _248
REMARK  116  A    between atoms: _251  and  _253
REMARK  117  A    between atoms: _253  and  _254
REMARK  118  A    between atoms: _253  and  _256
REMARK  119  A    between atoms: _256  and  _257
REMARK  120  A    between atoms: _257  and  _258
REMARK  121  A    between atoms: _261  and  _263
REMARK  122  A    between atoms: _263  and  _264
REMARK  123  A    between atoms: _263  and  _266
REMARK  124  A    between atoms: _269  and  _271
REMARK  125  A    between atoms: _271  and  _272
REMARK  126  A    between atoms: _271  and  _274
REMARK  127  A    between atoms: _274  and  _275
REMARK  128  A    between atoms: _275  and  _276
REMARK  129  A    between atoms: _276  and  _277
REMARK  130  A    between atoms: _286  and  _288
REMARK  131  A    between atoms: _288  and  _289
REMARK  132  A    between atoms: _288  and  _291
REMARK  133  A    between atoms: _291  and  _292
REMARK  134  A    between atoms: _297  and  _299
REMARK  135  A    between atoms: _299  and  _300
REMARK  136  A    between atoms: _299  and  _302
REMARK  137  A    between atoms: _302  and  _303
REMARK                            x       y       z     vdW  Elec       q    Type
REMARK                         _______ _______ _______ _____ _____    ______ ____
ROOT
ATOM      1  O   HOH     1     -23.442  23.534 -22.850  0.00  0.00    +0.000 OA
ENDROOT
TORSDOF 0
REMARK  Name = ../refined-set-2016/4ucc/4ucc_pocket.pdb
REMARK  137 active torsions:
REMARK  status: ('A' for Active; 'I' for Inactive)
REMARK    1  A    between atoms: _1  and  _3
REMARK    2  A    between atoms: _3  and  _4
REMARK    3  A    between atoms: _3  and  _6
REMARK    4  A    between atoms: _6  and  _7
REMARK    5  A    between atoms: _12  and  _14
REMARK    6  A    between atoms: _14  and  _15
REMARK    7  A    between atoms: _14  and  _17
REMARK    8  A    between atoms: _17  and  _18
REMARK    9  A    between atoms: _18  and  _19
REMARK   10  A    between atoms: _19  and  _20
REMARK   11  A    between atoms: _20  and  _21
REMARK   12  A    between atoms: _25  and  _27
REMARK   13  A    between atoms: _27  and  _28
REMARK   14  A    between atoms: _27  and  _30
REMARK   15  A    between atoms: _30  and  _31
REMARK   16  A    between atoms: _34  and  _36
REMARK   17  A    between atoms: _36  and  _37
REMARK   18  A    between atoms: _39  and  _41
REMARK   19  A    between atoms: _41  and  _42
REMARK   20  A    between atoms: _41  and  _44
REMARK   21  A    between atoms: _44  and  _45
REMARK   22  A    between atoms: _45  and  _46
REMARK   23  A    between atoms: _48  and  _50
REMARK   24  A    between atoms: _50  and  _51
REMARK   25  A    between atoms: _50  and  _53
REMARK   26  A    between atoms: _53  and  _54
REMARK   27  A    between atoms: _57  and  _59
REMARK   28  A    between atoms: _59  and  _60
REMARK   29  A    between atoms: _59  and  _62
REMARK   30  A    between atoms: _62  and  _63
REMARK   31  A    between atoms: _66  and  _68
REMARK   32  A    between atoms: _68  and  _69
REMARK   33  A    between atoms: _68  and  _71
REMARK   34  A    between atoms: _71  and  _72
REMARK   35  A    between atoms: _75  and  _77
REMARK   36  A    between atoms: _77  and  _78
REMARK   37  A    between atoms: _77  and  _80
REMARK   38  A    between atoms: _80  and  _81
REMARK   39  A    between atoms: _81  and  _82
REMARK   40  A    between atoms: _82  and  _83
REMARK   41  A    between atoms: _83  and  _84
REMARK   42  A    between atoms: _88  and  _90
REMARK   43  A    between atoms: _90  and  _91
REMARK   44  A    between atoms: _90  and  _93
REMARK   45  A    between atoms: _93  and  _94
REMARK   46  A    between atoms: _100  and  _102
REMARK   47  A    between atoms: _102  and  _103
REMARK   48  A    between atoms: _102  and  _105
REMARK   49  A    between atoms: _105  and  _106
REMARK   50  A    between atoms: _106  and  _107
REMARK   51  A    between atoms: _110  and  _112
REMARK   52  A    between atoms: _112  and  _113
REMARK   53  A    between atoms: _112  and  _115
REMARK   54  A    between atoms: _115  and  _116
REMARK   55  A    between atoms: _116  and  _117
REMARK   56  A    between atoms: _122  and  _124
REMARK   57  A    between atoms: _124  and  _125
REMARK   58  A    between atoms: _124  and  _127
REMARK   59  A    between atoms: _127  and  _128
REMARK   60  A    between atoms: _131  and  _133
REMARK   61  A    between atoms: _133  and  _134
REMARK   62  A    between atoms: _133  and  _136
REMARK   63  A    between atoms: _136  and  _137
REMARK   64  A    between atoms: _137  and  _138
REMARK   65  A    between atoms: _141  and  _143
REMARK   66  A    between atoms: _143  and  _144
REMARK   67  A    between atoms: _143  and  _146
REMARK   68  A    between atoms: _146  and  _147
REMARK   69  A    between atoms: _150  and  _152
REMARK   70  A    between atoms: _152  and  _153
REMARK   71  A    between atoms: _152  and  _155
REMARK   72  A    between atoms: _155  and  _156
REMARK   73  A    between atoms: _156  and  _157
REMARK   74  A    between atoms: _160  and  _162
REMARK   75  A    between atoms: _162  and  _163
REMARK   76  A    between atoms: _162  and  _165
REMARK   77  A    between atoms: _165  and  _166
REMARK   78  A    between atoms: _168  and  _170
REMARK   79  A    between atoms: _170  and  _171
REMARK   80  A    between atoms: _170  and  _173
REMARK   81  A    between atoms: _173  and  _174
REMARK   82  A    between atoms: _174  and  _175
REMARK   83  A    between atoms: _175  and  _176
REMARK   84  A    between atoms: _185  and  _187
REMARK   85  A    between atoms: _187  and  _188
REMARK   86  A    between atoms: _187  and  _190
REMARK   87  A    between atoms: _190  and  _191
REMARK   88  A    between atoms: _191  and  _192
REMARK   89  A    between atoms: _192  and  _193
REMARK   90  A    between atoms: _193  and  _194
REMARK   91  A    between atoms: _198  and  _200
REMARK   92  A    between atoms: _200  and  _201
REMARK   93  A    between atoms: _200  and  _203
REMARK   94  A    between atoms: _203  and  _204
REMARK   95  A    between atoms: _206  and  _208
REMARK   96  A    between atoms: _208  and  _209
REMARK   97  A    between atoms: _208  and  _211
REMARK   98  A    between atoms: _211  and  _212
REMARK   99  A    between atoms: _217  and  _218
REMARK  100  A    between atoms: _220  and  _222
REMARK  101  A    between atoms: _222  and  _223
REMARK  102  A    between atoms: _222  and  _225
REMARK  103  A    between atoms: _225  and  _226
REMARK  104  A    between atoms: _226  and  _227
REMARK  105  A    between atoms: _227  and  _228
REMARK  106  A    between atoms: _228  and  _229
REMARK  107  A    between atoms: _233  and  _235
REMARK  108  A    between atoms: _235  and  _236
REMARK  109  A    between atoms: _235  and  _238
REMARK  110  A    between atoms: _238  and  _239
REMARK  111  A    between atoms: _239  and  _240
REMARK  112  A    between atoms: _242  and  _244
REMARK  113  A    between atoms: _244  and  _245
REMARK  114  A    between atoms: _244  and  _247
REMARK  115  A    between atoms: _247  and  _248
REMARK  116  A    between atoms: _251  and  _253
REMARK  117  A    between atoms: _253  and  _254
REMARK  118  A    between atoms: _253  and  _256
REMARK  119  A    between atoms: _256  and  _257
REMARK  120  A    between atoms: _257  and  _258
REMARK  121  A    between atoms: _261  and  _263
REMARK  122  A    between atoms: _263  and  _264
REMARK  123  A    between atoms: _263  and  _266
REMARK  124  A    between atoms: _269  and  _271
REMARK  125  A    between atoms: _271  and  _272
REMARK  126  A    between atoms: _271  and  _274
REMARK  127  A    between atoms: _274  and  _275
REMARK  128  A    between atoms: _275  and  _276
REMARK  129  A    between atoms: _276  and  _277
REMARK  130  A    between atoms: _286  and  _288
REMARK  131  A    between atoms: _288  and  _289
REMARK  132  A    between atoms: _288  and  _291
REMARK  133  A    between atoms: _291  and  _292
REMARK  134  A    between atoms: _297  and  _299
REMARK  135  A    between atoms: _299  and  _300
REMARK  136  A    between atoms: _299  and  _302
REMARK  137  A    between atoms: _302  and  _303
REMARK                            x       y       z     vdW  Elec       q    Type
REMARK                         _______ _______ _______ _____ _____    ______ ____
ROOT
ATOM      1  O   HOH     1     -24.742  24.983 -26.243  0.00  0.00    +0.000 OA
ENDROOT
TORSDOF 0
REMARK  Name = ../refined-set-2016/4ucc/4ucc_pocket.pdb
REMARK  137 active torsions:
REMARK  status: ('A' for Active; 'I' for Inactive)
REMARK    1  A    between atoms: _1  and  _3
REMARK    2  A    between atoms: _3  and  _4
REMARK    3  A    between atoms: _3  and  _6
REMARK    4  A    between atoms: _6  and  _7
REMARK    5  A    between atoms: _12  and  _14
REMARK    6  A    between atoms: _14  and  _15
REMARK    7  A    between atoms: _14  and  _17
REMARK    8  A    between atoms: _17  and  _18
REMARK    9  A    between atoms: _18  and  _19
REMARK   10  A    between atoms: _19  and  _20
REMARK   11  A    between atoms: _20  and  _21
REMARK   12  A    between atoms: _25  and  _27
REMARK   13  A    between atoms: _27  and  _28
REMARK   14  A    between atoms: _27  and  _30
REMARK   15  A    between atoms: _30  and  _31
REMARK   16  A    between atoms: _34  and  _36
REMARK   17  A    between atoms: _36  and  _37
REMARK   18  A    between atoms: _39  and  _41
REMARK   19  A    between atoms: _41  and  _42
REMARK   20  A    between atoms: _41  and  _44
REMARK   21  A    between atoms: _44  and  _45
REMARK   22  A    between atoms: _45  and  _46
REMARK   23  A    between atoms: _48  and  _50
REMARK   24  A    between atoms: _50  and  _51
REMARK   25  A    between atoms: _50  and  _53
REMARK   26  A    between atoms: _53  and  _54
REMARK   27  A    between atoms: _57  and  _59
REMARK   28  A    between atoms: _59  and  _60
REMARK   29  A    between atoms: _59  and  _62
REMARK   30  A    between atoms: _62  and  _63
REMARK   31  A    between atoms: _66  and  _68
REMARK   32  A    between atoms: _68  and  _69
REMARK   33  A    between atoms: _68  and  _71
REMARK   34  A    between atoms: _71  and  _72
REMARK   35  A    between atoms: _75  and  _77
REMARK   36  A    between atoms: _77  and  _78
REMARK   37  A    between atoms: _77  and  _80
REMARK   38  A    between atoms: _80  and  _81
REMARK   39  A    between atoms: _81  and  _82
REMARK   40  A    between atoms: _82  and  _83
REMARK   41  A    between atoms: _83  and  _84
REMARK   42  A    between atoms: _88  and  _90
REMARK   43  A    between atoms: _90  and  _91
REMARK   44  A    between atoms: _90  and  _93
REMARK   45  A    between atoms: _93  and  _94
REMARK   46  A    between atoms: _100  and  _102
REMARK   47  A    between atoms: _102  and  _103
REMARK   48  A    between atoms: _102  and  _105
REMARK   49  A    between atoms: _105  and  _106
REMARK   50  A    between atoms: _106  and  _107
REMARK   51  A    between atoms: _110  and  _112
REMARK   52  A    between atoms: _112  and  _113
REMARK   53  A    between atoms: _112  and  _115
REMARK   54  A    between atoms: _115  and  _116
REMARK   55  A    between atoms: _116  and  _117
REMARK   56  A    between atoms: _122  and  _124
REMARK   57  A    between atoms: _124  and  _125
REMARK   58  A    between atoms: _124  and  _127
REMARK   59  A    between atoms: _127  and  _128
REMARK   60  A    between atoms: _131  and  _133
REMARK   61  A    between atoms: _133  and  _134
REMARK   62  A    between atoms: _133  and  _136
REMARK   63  A    between atoms: _136  and  _137
REMARK   64  A    between atoms: _137  and  _138
REMARK   65  A    between atoms: _141  and  _143
REMARK   66  A    between atoms: _143  and  _144
REMARK   67  A    between atoms: _143  and  _146
REMARK   68  A    between atoms: _146  and  _147
REMARK   69  A    between atoms: _150  and  _152
REMARK   70  A    between atoms: _152  and  _153
REMARK   71  A    between atoms: _152  and  _155
REMARK   72  A    between atoms: _155  and  _156
REMARK   73  A    between atoms: _156  and  _157
REMARK   74  A    between atoms: _160  and  _162
REMARK   75  A    between atoms: _162  and  _163
REMARK   76  A    between atoms: _162  and  _165
REMARK   77  A    between atoms: _165  and  _166
REMARK   78  A    between atoms: _168  and  _170
REMARK   79  A    between atoms: _170  and  _171
REMARK   80  A    between atoms: _170  and  _173
REMARK   81  A    between atoms: _173  and  _174
REMARK   82  A    between atoms: _174  and  _175
REMARK   83  A    between atoms: _175  and  _176
REMARK   84  A    between atoms: _185  and  _187
REMARK   85  A    between atoms: _187  and  _188
REMARK   86  A    between atoms: _187  and  _190
REMARK   87  A    between atoms: _190  and  _191
REMARK   88  A    between atoms: _191  and  _192
REMARK   89  A    between atoms: _192  and  _193
REMARK   90  A    between atoms: _193  and  _194
REMARK   91  A    between atoms: _198  and  _200
REMARK   92  A    between atoms: _200  and  _201
REMARK   93  A    between atoms: _200  and  _203
REMARK   94  A    between atoms: _203  and  _204
REMARK   95  A    between atoms: _206  and  _208
REMARK   96  A    between atoms: _208  and  _209
REMARK   97  A    between atoms: _208  and  _211
REMARK   98  A    between atoms: _211  and  _212
REMARK   99  A    between atoms: _217  and  _218
REMARK  100  A    between atoms: _220  and  _222
REMARK  101  A    between atoms: _222  and  _223
REMARK  102  A    between atoms: _222  and  _225
REMARK  103  A    between atoms: _225  and  _226
REMARK  104  A    between atoms: _226  and  _227
REMARK  105  A    between atoms: _227  and  _228
REMARK  106  A    between atoms: _228  and  _229
REMARK  107  A    between atoms: _233  and  _235
REMARK  108  A    between atoms: _235  and  _236
REMARK  109  A    between atoms: _235  and  _238
REMARK  110  A    between atoms: _238  and  _239
REMARK  111  A    between atoms: _239  and  _240
REMARK  112  A    between atoms: _242  and  _244
REMARK  113  A    between atoms: _244  and  _245
REMARK  114  A    between atoms: _244  and  _247
REMARK  115  A    between atoms: _247  and  _248
REMARK  116  A    between atoms: _251  and  _253
REMARK  117  A    between atoms: _253  and  _254
REMARK  118  A    between atoms: _253  and  _256
REMARK  119  A    between atoms: _256  and  _257
REMARK  120  A    between atoms: _257  and  _258
REMARK  121  A    between atoms: _261  and  _263
REMARK  122  A    between atoms: _263  and  _264
REMARK  123  A    between atoms: _263  and  _266
REMARK  124  A    between atoms: _269  and  _271
REMARK  125  A    between atoms: _271  and  _272
REMARK  126  A    between atoms: _271  and  _274
REMARK  127  A    between atoms: _274  and  _275
REMARK  128  A    between atoms: _275  and  _276
REMARK  129  A    between atoms: _276  and  _277
REMARK  130  A    between atoms: _286  and  _288
REMARK  131  A    between atoms: _288  and  _289
REMARK  132  A    between atoms: _288  and  _291
REMARK  133  A    between atoms: _291  and  _292
REMARK  134  A    between atoms: _297  and  _299
REMARK  135  A    between atoms: _299  and  _300
REMARK  136  A    between atoms: _299  and  _302
REMARK  137  A    between atoms: _302  and  _303
REMARK                            x       y       z     vdW  Elec       q    Type
REMARK                         _______ _______ _______ _____ _____    ______ ____
ROOT
ATOM      1  O   HOH     1     -24.854  20.370 -28.347  0.00  0.00    +0.000 OA
ENDROOT
TORSDOF 0
REMARK  Name = ../refined-set-2016/4ucc/4ucc_pocket.pdb
REMARK  137 active torsions:
REMARK  status: ('A' for Active; 'I' for Inactive)
REMARK    1  A    between atoms: _1  and  _3
REMARK    2  A    between atoms: _3  and  _4
REMARK    3  A    between atoms: _3  and  _6
REMARK    4  A    between atoms: _6  and  _7
REMARK    5  A    between atoms: _12  and  _14
REMARK    6  A    between atoms: _14  and  _15
REMARK    7  A    between atoms: _14  and  _17
REMARK    8  A    between atoms: _17  and  _18
REMARK    9  A    between atoms: _18  and  _19
REMARK   10  A    between atoms: _19  and  _20
REMARK   11  A    between atoms: _20  and  _21
REMARK   12  A    between atoms: _25  and  _27
REMARK   13  A    between atoms: _27  and  _28
REMARK   14  A    between atoms: _27  and  _30
REMARK   15  A    between atoms: _30  and  _31
REMARK   16  A    between atoms: _34  and  _36
REMARK   17  A    between atoms: _36  and  _37
REMARK   18  A    between atoms: _39  and  _41
REMARK   19  A    between atoms: _41  and  _42
REMARK   20  A    between atoms: _41  and  _44
REMARK   21  A    between atoms: _44  and  _45
REMARK   22  A    between atoms: _45  and  _46
REMARK   23  A    between atoms: _48  and  _50
REMARK   24  A    between atoms: _50  and  _51
REMARK   25  A    between atoms: _50  and  _53
REMARK   26  A    between atoms: _53  and  _54
REMARK   27  A    between atoms: _57  and  _59
REMARK   28  A    between atoms: _59  and  _60
REMARK   29  A    between atoms: _59  and  _62
REMARK   30  A    between atoms: _62  and  _63
REMARK   31  A    between atoms: _66  and  _68
REMARK   32  A    between atoms: _68  and  _69
REMARK   33  A    between atoms: _68  and  _71
REMARK   34  A    between atoms: _71  and  _72
REMARK   35  A    between atoms: _75  and  _77
REMARK   36  A    between atoms: _77  and  _78
REMARK   37  A    between atoms: _77  and  _80
REMARK   38  A    between atoms: _80  and  _81
REMARK   39  A    between atoms: _81  and  _82
REMARK   40  A    between atoms: _82  and  _83
REMARK   41  A    between atoms: _83  and  _84
REMARK   42  A    between atoms: _88  and  _90
REMARK   43  A    between atoms: _90  and  _91
REMARK   44  A    between atoms: _90  and  _93
REMARK   45  A    between atoms: _93  and  _94
REMARK   46  A    between atoms: _100  and  _102
REMARK   47  A    between atoms: _102  and  _103
REMARK   48  A    between atoms: _102  and  _105
REMARK   49  A    between atoms: _105  and  _106
REMARK   50  A    between atoms: _106  and  _107
REMARK   51  A    between atoms: _110  and  _112
REMARK   52  A    between atoms: _112  and  _113
REMARK   53  A    between atoms: _112  and  _115
REMARK   54  A    between atoms: _115  and  _116
REMARK   55  A    between atoms: _116  and  _117
REMARK   56  A    between atoms: _122  and  _124
REMARK   57  A    between atoms: _124  and  _125
REMARK   58  A    between atoms: _124  and  _127
REMARK   59  A    between atoms: _127  and  _128
REMARK   60  A    between atoms: _131  and  _133
REMARK   61  A    between atoms: _133  and  _134
REMARK   62  A    between atoms: _133  and  _136
REMARK   63  A    between atoms: _136  and  _137
REMARK   64  A    between atoms: _137  and  _138
REMARK   65  A    between atoms: _141  and  _143
REMARK   66  A    between atoms: _143  and  _144
REMARK   67  A    between atoms: _143  and  _146
REMARK   68  A    between atoms: _146  and  _147
REMARK   69  A    between atoms: _150  and  _152
REMARK   70  A    between atoms: _152  and  _153
REMARK   71  A    between atoms: _152  and  _155
REMARK   72  A    between atoms: _155  and  _156
REMARK   73  A    between atoms: _156  and  _157
REMARK   74  A    between atoms: _160  and  _162
REMARK   75  A    between atoms: _162  and  _163
REMARK   76  A    between atoms: _162  and  _165
REMARK   77  A    between atoms: _165  and  _166
REMARK   78  A    between atoms: _168  and  _170
REMARK   79  A    between atoms: _170  and  _171
REMARK   80  A    between atoms: _170  and  _173
REMARK   81  A    between atoms: _173  and  _174
REMARK   82  A    between atoms: _174  and  _175
REMARK   83  A    between atoms: _175  and  _176
REMARK   84  A    between atoms: _185  and  _187
REMARK   85  A    between atoms: _187  and  _188
REMARK   86  A    between atoms: _187  and  _190
REMARK   87  A    between atoms: _190  and  _191
REMARK   88  A    between atoms: _191  and  _192
REMARK   89  A    between atoms: _192  and  _193
REMARK   90  A    between atoms: _193  and  _194
REMARK   91  A    between atoms: _198  and  _200
REMARK   92  A    between atoms: _200  and  _201
REMARK   93  A    between atoms: _200  and  _203
REMARK   94  A    between atoms: _203  and  _204
REMARK   95  A    between atoms: _206  and  _208
REMARK   96  A    between atoms: _208  and  _209
REMARK   97  A    between atoms: _208  and  _211
REMARK   98  A    between atoms: _211  and  _212
REMARK   99  A    between atoms: _217  and  _218
REMARK  100  A    between atoms: _220  and  _222
REMARK  101  A    between atoms: _222  and  _223
REMARK  102  A    between atoms: _222  and  _225
REMARK  103  A    between atoms: _225  and  _226
REMARK  104  A    between atoms: _226  and  _227
REMARK  105  A    between atoms: _227  and  _228
REMARK  106  A    between atoms: _228  and  _229
REMARK  107  A    between atoms: _233  and  _235
REMARK  108  A    between atoms: _235  and  _236
REMARK  109  A    between atoms: _235  and  _238
REMARK  110  A    between atoms: _238  and  _239
REMARK  111  A    between atoms: _239  and  _240
REMARK  112  A    between atoms: _242  and  _244
REMARK  113  A    between atoms: _244  and  _245
REMARK  114  A    between atoms: _244  and  _247
REMARK  115  A    between atoms: _247  and  _248
REMARK  116  A    between atoms: _251  and  _253
REMARK  117  A    between atoms: _253  and  _254
REMARK  118  A    between atoms: _253  and  _256
REMARK  119  A    between atoms: _256  and  _257
REMARK  120  A    between atoms: _257  and  _258
REMARK  121  A    between atoms: _261  and  _263
REMARK  122  A    between atoms: _263  and  _264
REMARK  123  A    between atoms: _263  and  _266
REMARK  124  A    between atoms: _269  and  _271
REMARK  125  A    between atoms: _271  and  _272
REMARK  126  A    between atoms: _271  and  _274
REMARK  127  A    between atoms: _274  and  _275
REMARK  128  A    between atoms: _275  and  _276
REMARK  129  A    between atoms: _276  and  _277
REMARK  130  A    between atoms: _286  and  _288
REMARK  131  A    between atoms: _288  and  _289
REMARK  132  A    between atoms: _288  and  _291
REMARK  133  A    between atoms: _291  and  _292
REMARK  134  A    between atoms: _297  and  _299
REMARK  135  A    between atoms: _299  and  _300
REMARK  136  A    between atoms: _299  and  _302
REMARK  137  A    between atoms: _302  and  _303
REMARK                            x       y       z     vdW  Elec       q    Type
REMARK                         _______ _______ _______ _____ _____    ______ ____
ROOT
ATOM      1  O   HOH     1     -24.223  15.825 -21.929  0.00  0.00    +0.000 OA
ENDROOT
TORSDOF 0
REMARK  Name = ../refined-set-2016/4ucc/4ucc_pocket.pdb
REMARK  137 active torsions:
REMARK  status: ('A' for Active; 'I' for Inactive)
REMARK    1  A    between atoms: _1  and  _3
REMARK    2  A    between atoms: _3  and  _4
REMARK    3  A    between atoms: _3  and  _6
REMARK    4  A    between atoms: _6  and  _7
REMARK    5  A    between atoms: _12  and  _14
REMARK    6  A    between atoms: _14  and  _15
REMARK    7  A    between atoms: _14  and  _17
REMARK    8  A    between atoms: _17  and  _18
REMARK    9  A    between atoms: _18  and  _19
REMARK   10  A    between atoms: _19  and  _20
REMARK   11  A    between atoms: _20  and  _21
REMARK   12  A    between atoms: _25  and  _27
REMARK   13  A    between atoms: _27  and  _28
REMARK   14  A    between atoms: _27  and  _30
REMARK   15  A    between atoms: _30  and  _31
REMARK   16  A    between atoms: _34  and  _36
REMARK   17  A    between atoms: _36  and  _37
REMARK   18  A    between atoms: _39  and  _41
REMARK   19  A    between atoms: _41  and  _42
REMARK   20  A    between atoms: _41  and  _44
REMARK   21  A    between atoms: _44  and  _45
REMARK   22  A    between atoms: _45  and  _46
REMARK   23  A    between atoms: _48  and  _50
REMARK   24  A    between atoms: _50  and  _51
REMARK   25  A    between atoms: _50  and  _53
REMARK   26  A    between atoms: _53  and  _54
REMARK   27  A    between atoms: _57  and  _59
REMARK   28  A    between atoms: _59  and  _60
REMARK   29  A    between atoms: _59  and  _62
REMARK   30  A    between atoms: _62  and  _63
REMARK   31  A    between atoms: _66  and  _68
REMARK   32  A    between atoms: _68  and  _69
REMARK   33  A    between atoms: _68  and  _71
REMARK   34  A    between atoms: _71  and  _72
REMARK   35  A    between atoms: _75  and  _77
REMARK   36  A    between atoms: _77  and  _78
REMARK   37  A    between atoms: _77  and  _80
REMARK   38  A    between atoms: _80  and  _81
REMARK   39  A    between atoms: _81  and  _82
REMARK   40  A    between atoms: _82  and  _83
REMARK   41  A    between atoms: _83  and  _84
REMARK   42  A    between atoms: _88  and  _90
REMARK   43  A    between atoms: _90  and  _91
REMARK   44  A    between atoms: _90  and  _93
REMARK   45  A    between atoms: _93  and  _94
REMARK   46  A    between atoms: _100  and  _102
REMARK   47  A    between atoms: _102  and  _103
REMARK   48  A    between atoms: _102  and  _105
REMARK   49  A    between atoms: _105  and  _106
REMARK   50  A    between atoms: _106  and  _107
REMARK   51  A    between atoms: _110  and  _112
REMARK   52  A    between atoms: _112  and  _113
REMARK   53  A    between atoms: _112  and  _115
REMARK   54  A    between atoms: _115  and  _116
REMARK   55  A    between atoms: _116  and  _117
REMARK   56  A    between atoms: _122  and  _124
REMARK   57  A    between atoms: _124  and  _125
REMARK   58  A    between atoms: _124  and  _127
REMARK   59  A    between atoms: _127  and  _128
REMARK   60  A    between atoms: _131  and  _133
REMARK   61  A    between atoms: _133  and  _134
REMARK   62  A    between atoms: _133  and  _136
REMARK   63  A    between atoms: _136  and  _137
REMARK   64  A    between atoms: _137  and  _138
REMARK   65  A    between atoms: _141  and  _143
REMARK   66  A    between atoms: _143  and  _144
REMARK   67  A    between atoms: _143  and  _146
REMARK   68  A    between atoms: _146  and  _147
REMARK   69  A    between atoms: _150  and  _152
REMARK   70  A    between atoms: _152  and  _153
REMARK   71  A    between atoms: _152  and  _155
REMARK   72  A    between atoms: _155  and  _156
REMARK   73  A    between atoms: _156  and  _157
REMARK   74  A    between atoms: _160  and  _162
REMARK   75  A    between atoms: _162  and  _163
REMARK   76  A    between atoms: _162  and  _165
REMARK   77  A    between atoms: _165  and  _166
REMARK   78  A    between atoms: _168  and  _170
REMARK   79  A    between atoms: _170  and  _171
REMARK   80  A    between atoms: _170  and  _173
REMARK   81  A    between atoms: _173  and  _174
REMARK   82  A    between atoms: _174  and  _175
REMARK   83  A    between atoms: _175  and  _176
REMARK   84  A    between atoms: _185  and  _187
REMARK   85  A    between atoms: _187  and  _188
REMARK   86  A    between atoms: _187  and  _190
REMARK   87  A    between atoms: _190  and  _191
REMARK   88  A    between atoms: _191  and  _192
REMARK   89  A    between atoms: _192  and  _193
REMARK   90  A    between atoms: _193  and  _194
REMARK   91  A    between atoms: _198  and  _200
REMARK   92  A    between atoms: _200  and  _201
REMARK   93  A    between atoms: _200  and  _203
REMARK   94  A    between atoms: _203  and  _204
REMARK   95  A    between atoms: _206  and  _208
REMARK   96  A    between atoms: _208  and  _209
REMARK   97  A    between atoms: _208  and  _211
REMARK   98  A    between atoms: _211  and  _212
REMARK   99  A    between atoms: _217  and  _218
REMARK  100  A    between atoms: _220  and  _222
REMARK  101  A    between atoms: _222  and  _223
REMARK  102  A    between atoms: _222  and  _225
REMARK  103  A    between atoms: _225  and  _226
REMARK  104  A    between atoms: _226  and  _227
REMARK  105  A    between atoms: _227  and  _228
REMARK  106  A    between atoms: _228  and  _229
REMARK  107  A    between atoms: _233  and  _235
REMARK  108  A    between atoms: _235  and  _236
REMARK  109  A    between atoms: _235  and  _238
REMARK  110  A    between atoms: _238  and  _239
REMARK  111  A    between atoms: _239  and  _240
REMARK  112  A    between atoms: _242  and  _244
REMARK  113  A    between atoms: _244  and  _245
REMARK  114  A    between atoms: _244  and  _247
REMARK  115  A    between atoms: _247  and  _248
REMARK  116  A    between atoms: _251  and  _253
REMARK  117  A    between atoms: _253  and  _254
REMARK  118  A    between atoms: _253  and  _256
REMARK  119  A    between atoms: _256  and  _257
REMARK  120  A    between atoms: _257  and  _258
REMARK  121  A    between atoms: _261  and  _263
REMARK  122  A    between atoms: _263  and  _264
REMARK  123  A    between atoms: _263  and  _266
REMARK  124  A    between atoms: _269  and  _271
REMARK  125  A    between atoms: _271  and  _272
REMARK  126  A    between atoms: _271  and  _274
REMARK  127  A    between atoms: _274  and  _275
REMARK  128  A    between atoms: _275  and  _276
REMARK  129  A    between atoms: _276  and  _277
REMARK  130  A    between atoms: _286  and  _288
REMARK  131  A    between atoms: _288  and  _289
REMARK  132  A    between atoms: _288  and  _291
REMARK  133  A    between atoms: _291  and  _292
REMARK  134  A    between atoms: _297  and  _299
REMARK  135  A    between atoms: _299  and  _300
REMARK  136  A    between atoms: _299  and  _302
REMARK  137  A    between atoms: _302  and  _303
REMARK                            x       y       z     vdW  Elec       q    Type
REMARK                         _______ _______ _______ _____ _____    ______ ____
ROOT
ATOM      1  O   HOH     1     -18.941  19.462 -23.503  0.00  0.00    +0.000 OA
ENDROOT
TORSDOF 0
