REMARK  Name = ../refined-set-2016/1ws4/1ws4_pocket.pdb
REMARK  84 active torsions:
REMARK  status: ('A' for Active; 'I' for Inactive)
REMARK    1  A    between atoms: _1  and  _5
REMARK    2  A    between atoms: _5  and  _6
REMARK    3  A    between atoms: _8  and  _10
REMARK    4  A    between atoms: _10  and  _11
REMARK    5  A    between atoms: _10  and  _13
REMARK    6  A    between atoms: _13  and  _14
REMARK    7  A    between atoms: _14  and  _15
REMARK    8  A    between atoms: _15  and  _16
REMARK    9  A    between atoms: _16  and  _17
REMARK   10  A    between atoms: _21  and  _23
REMARK   11  A    between atoms: _23  and  _24
REMARK   12  A    between atoms: _27  and  _29
REMARK   13  A    between atoms: _29  and  _30
REMARK   14  A    between atoms: _29  and  _32
REMARK   15  A    between atoms: _32  and  _33
REMARK   16  A    between atoms: _36  and  _38
REMARK   17  A    between atoms: _38  and  _39
REMARK   18  A    between atoms: _38  and  _41
REMARK   19  A    between atoms: _41  and  _42
REMARK   20  A    between atoms: _44  and  _46
REMARK   21  A    between atoms: _46  and  _47
REMARK   22  A    between atoms: _46  and  _49
REMARK   23  A    between atoms: _49  and  _50
REMARK   24  A    between atoms: _56  and  _58
REMARK   25  A    between atoms: _58  and  _59
REMARK   26  A    between atoms: _58  and  _61
REMARK   27  A    between atoms: _61  and  _62
REMARK   28  A    between atoms: _65  and  _67
REMARK   29  A    between atoms: _67  and  _68
REMARK   30  A    between atoms: _67  and  _70
REMARK   31  A    between atoms: _73  and  _75
REMARK   32  A    between atoms: _75  and  _76
REMARK   33  A    between atoms: _75  and  _78
REMARK   34  A    between atoms: _78  and  _79
REMARK   35  A    between atoms: _81  and  _83
REMARK   36  A    between atoms: _83  and  _84
REMARK   37  A    between atoms: _86  and  _88
REMARK   38  A    between atoms: _88  and  _89
REMARK   39  A    between atoms: _88  and  _91
REMARK   40  A    between atoms: _91  and  _92
REMARK   41  A    between atoms: _97  and  _98
REMARK   42  A    between atoms: _100  and  _102
REMARK   43  A    between atoms: _102  and  _103
REMARK   44  A    between atoms: _102  and  _105
REMARK   45  A    between atoms: _108  and  _110
REMARK   46  A    between atoms: _110  and  _111
REMARK   47  A    between atoms: _110  and  _113
REMARK   48  A    between atoms: _116  and  _118
REMARK   49  A    between atoms: _118  and  _119
REMARK   50  A    between atoms: _118  and  _121
REMARK   51  A    between atoms: _124  and  _126
REMARK   52  A    between atoms: _126  and  _127
REMARK   53  A    between atoms: _126  and  _129
REMARK   54  A    between atoms: _129  and  _130
REMARK   55  A    between atoms: _132  and  _134
REMARK   56  A    between atoms: _134  and  _135
REMARK   57  A    between atoms: _134  and  _137
REMARK   58  A    between atoms: _137  and  _138
REMARK   59  A    between atoms: _141  and  _143
REMARK   60  A    between atoms: _143  and  _144
REMARK   61  A    between atoms: _146  and  _148
REMARK   62  A    between atoms: _148  and  _149
REMARK   63  A    between atoms: _148  and  _151
REMARK   64  A    between atoms: _151  and  _152
REMARK   65  A    between atoms: _157  and  _158
REMARK   66  A    between atoms: _160  and  _162
REMARK   67  A    between atoms: _162  and  _163
REMARK   68  A    between atoms: _162  and  _165
REMARK   69  A    between atoms: _165  and  _166
REMARK   70  A    between atoms: _176  and  _178
REMARK   71  A    between atoms: _178  and  _179
REMARK   72  A    between atoms: _178  and  _181
REMARK   73  A    between atoms: _181  and  _182
REMARK   74  A    between atoms: _185  and  _187
REMARK   75  A    between atoms: _187  and  _188
REMARK   76  A    between atoms: _187  and  _190
REMARK   77  A    between atoms: _190  and  _191
REMARK   78  A    between atoms: _194  and  _196
REMARK   79  A    between atoms: _196  and  _197
REMARK   80  A    between atoms: _196  and  _199
REMARK   81  A    between atoms: _199  and  _200
REMARK   82  A    between atoms: _205  and  _206
REMARK   83  A    between atoms: _208  and  _210
REMARK   84  A    between atoms: _210  and  _211
REMARK                            x       y       z     vdW  Elec       q    Type
REMARK                         _______ _______ _______ _____ _____    ______ ____
ROOT
ATOM      1  CA  LYS A   2      49.316  61.213  60.775  0.00  0.00    +0.137 C 
ENDROOT
BRANCH   1   4
ATOM      2  C   GLY A   1      50.041  60.543  62.990  0.00  0.00    +0.201 C 
ATOM      3  O   GLY A   1      50.737  61.553  63.113  0.00  0.00    -0.277 OA
ATOM      4  N   LYS A   2      49.325  60.289  61.901  0.00  0.00    -0.301 N 
ATOM      5  H   LYS A   2      48.762  59.416  61.851  0.00  0.00    +0.150 HD
BRANCH   2   6
ATOM      6  CA  GLY A   1      49.975  59.512  64.100  0.00  0.00    +0.001 C 
BRANCH   6   7
ATOM      7  N   GLY A   1      50.630  59.996  65.338  0.00  0.00    +0.386 N 
ATOM      8  H1  GLY A   1      50.564  59.263  66.073  0.00  0.00    -0.089 HD
ATOM      9  H2  GLY A   1      50.154  60.861  65.665  0.00  0.00    -0.089 HD
ATOM     10  H3  GLY A   1      51.630  60.203  65.142  0.00  0.00    -0.089 HD
ENDBRANCH   6   7
ENDBRANCH   2   6
ENDBRANCH   1   4
BRANCH   1  11
ATOM     11  C   LYS A   2      48.193  62.225  60.953  0.00  0.00    +0.227 C 
ATOM     12  O   LYS A   2      47.015  61.861  61.022  0.00  0.00    -0.286 OA
ENDBRANCH   1  11
BRANCH   1  13
ATOM     13  CB  LYS A   2      49.118  60.460  59.457  0.00  0.00    +0.028 C 
BRANCH  13  14
ATOM     14  CG  LYS A   2      49.264  61.354  58.231  0.00  0.00    -0.000 C 
BRANCH  14  15
ATOM     15  CD  LYS A   2      49.001  60.599  56.937  0.00  0.00    -0.024 C 
BRANCH  15  16
ATOM     16  CE  LYS A   2      49.180  61.517  55.731  0.00  0.00    -0.086 C 
BRANCH  16  17
ATOM     17  NZ  LYS A   2      48.844  60.836  54.450  0.00  0.00    +0.380 N 
ATOM     18  HZ1 LYS A   2      47.852  60.524  54.474  0.00  0.00    -0.089 HD
ATOM     19  HZ2 LYS A   2      49.465  60.011  54.324  0.00  0.00    -0.089 HD
ATOM     20  HZ3 LYS A   2      48.981  61.499  53.660  0.00  0.00    -0.089 HD
ENDBRANCH  16  17
ENDBRANCH  15  16
ENDBRANCH  14  15
ENDBRANCH  13  14
ENDBRANCH   1  13
TORSDOF 9
REMARK  Name = ../refined-set-2016/1ws4/1ws4_pocket.pdb
REMARK  84 active torsions:
REMARK  status: ('A' for Active; 'I' for Inactive)
REMARK    1  A    between atoms: _1  and  _5
REMARK    2  A    between atoms: _5  and  _6
REMARK    3  A    between atoms: _8  and  _10
REMARK    4  A    between atoms: _10  and  _11
REMARK    5  A    between atoms: _10  and  _13
REMARK    6  A    between atoms: _13  and  _14
REMARK    7  A    between atoms: _14  and  _15
REMARK    8  A    between atoms: _15  and  _16
REMARK    9  A    between atoms: _16  and  _17
REMARK   10  A    between atoms: _21  and  _23
REMARK   11  A    between atoms: _23  and  _24
REMARK   12  A    between atoms: _27  and  _29
REMARK   13  A    between atoms: _29  and  _30
REMARK   14  A    between atoms: _29  and  _32
REMARK   15  A    between atoms: _32  and  _33
REMARK   16  A    between atoms: _36  and  _38
REMARK   17  A    between atoms: _38  and  _39
REMARK   18  A    between atoms: _38  and  _41
REMARK   19  A    between atoms: _41  and  _42
REMARK   20  A    between atoms: _44  and  _46
REMARK   21  A    between atoms: _46  and  _47
REMARK   22  A    between atoms: _46  and  _49
REMARK   23  A    between atoms: _49  and  _50
REMARK   24  A    between atoms: _56  and  _58
REMARK   25  A    between atoms: _58  and  _59
REMARK   26  A    between atoms: _58  and  _61
REMARK   27  A    between atoms: _61  and  _62
REMARK   28  A    between atoms: _65  and  _67
REMARK   29  A    between atoms: _67  and  _68
REMARK   30  A    between atoms: _67  and  _70
REMARK   31  A    between atoms: _73  and  _75
REMARK   32  A    between atoms: _75  and  _76
REMARK   33  A    between atoms: _75  and  _78
REMARK   34  A    between atoms: _78  and  _79
REMARK   35  A    between atoms: _81  and  _83
REMARK   36  A    between atoms: _83  and  _84
REMARK   37  A    between atoms: _86  and  _88
REMARK   38  A    between atoms: _88  and  _89
REMARK   39  A    between atoms: _88  and  _91
REMARK   40  A    between atoms: _91  and  _92
REMARK   41  A    between atoms: _97  and  _98
REMARK   42  A    between atoms: _100  and  _102
REMARK   43  A    between atoms: _102  and  _103
REMARK   44  A    between atoms: _102  and  _105
REMARK   45  A    between atoms: _108  and  _110
REMARK   46  A    between atoms: _110  and  _111
REMARK   47  A    between atoms: _110  and  _113
REMARK   48  A    between atoms: _116  and  _118
REMARK   49  A    between atoms: _118  and  _119
REMARK   50  A    between atoms: _118  and  _121
REMARK   51  A    between atoms: _124  and  _126
REMARK   52  A    between atoms: _126  and  _127
REMARK   53  A    between atoms: _126  and  _129
REMARK   54  A    between atoms: _129  and  _130
REMARK   55  A    between atoms: _132  and  _134
REMARK   56  A    between atoms: _134  and  _135
REMARK   57  A    between atoms: _134  and  _137
REMARK   58  A    between atoms: _137  and  _138
REMARK   59  A    between atoms: _141  and  _143
REMARK   60  A    between atoms: _143  and  _144
REMARK   61  A    between atoms: _146  and  _148
REMARK   62  A    between atoms: _148  and  _149
REMARK   63  A    between atoms: _148  and  _151
REMARK   64  A    between atoms: _151  and  _152
REMARK   65  A    between atoms: _157  and  _158
REMARK   66  A    between atoms: _160  and  _162
REMARK   67  A    between atoms: _162  and  _163
REMARK   68  A    between atoms: _162  and  _165
REMARK   69  A    between atoms: _165  and  _166
REMARK   70  A    between atoms: _176  and  _178
REMARK   71  A    between atoms: _178  and  _179
REMARK   72  A    between atoms: _178  and  _181
REMARK   73  A    between atoms: _181  and  _182
REMARK   74  A    between atoms: _185  and  _187
REMARK   75  A    between atoms: _187  and  _188
REMARK   76  A    between atoms: _187  and  _190
REMARK   77  A    between atoms: _190  and  _191
REMARK   78  A    between atoms: _194  and  _196
REMARK   79  A    between atoms: _196  and  _197
REMARK   80  A    between atoms: _196  and  _199
REMARK   81  A    between atoms: _199  and  _200
REMARK   82  A    between atoms: _205  and  _206
REMARK   83  A    between atoms: _208  and  _210
REMARK   84  A    between atoms: _210  and  _211
REMARK                            x       y       z     vdW  Elec       q    Type
REMARK                         _______ _______ _______ _____ _____    ______ ____
ROOT
ATOM      1  C   ALA A   1      39.110  52.756  68.970  0.00  0.00    +0.238 C 
ATOM      2  N   ILE A   2      38.888  54.029  68.664  0.00  0.00    -0.298 N 
ATOM      3  H   ILE A   2      39.072  54.759  69.381  0.00  0.00    +0.150 HD
ATOM      4  O   ALA A   1      38.901  51.833  68.185  0.00  0.00    -0.274 OA
ENDROOT
BRANCH   1   5
ATOM      5  CA  ALA A   1      39.643  52.493  70.377  0.00  0.00    +0.145 C 
ATOM      6  CB  ALA A   1      40.820  53.414  70.660  0.00  0.00    +0.028 C 
BRANCH   5   7
ATOM      7  N   ALA A   1      40.053  51.107  70.587  0.00  0.00    -0.238 NA
ATOM      8  H   ALA A   1      40.192  50.480  69.769  0.00  0.00    +0.142 HD
ENDBRANCH   5   7
ENDBRANCH   1   5
BRANCH   2   9
ATOM      9  CA  ILE A   2      38.394  54.434  67.351  0.00  0.00    +0.137 C 
BRANCH   9  10
ATOM     10  CB  ILE A   2      37.858  55.870  67.406  0.00  0.00    +0.026 C 
ATOM     11  CG2 ILE A   2      37.566  56.386  66.001  0.00  0.00    +0.002 C 
BRANCH  10  12
ATOM     12  CG1 ILE A   2      36.612  55.893  68.290  0.00  0.00    +0.002 C 
ATOM     13  CD1 ILE A   2      36.270  57.242  68.804  0.00  0.00    +0.000 C 
ENDBRANCH  10  12
ENDBRANCH   9  10
BRANCH   9  14
ATOM     14  C   ILE A   2      39.514  54.343  66.323  0.00  0.00    +0.227 C 
ATOM     15  O   ILE A   2      40.659  54.699  66.606  0.00  0.00    -0.286 OA
ENDBRANCH   9  14
ENDBRANCH   2   9
TORSDOF 6
REMARK  Name = ../refined-set-2016/1ws4/1ws4_pocket.pdb
REMARK  84 active torsions:
REMARK  status: ('A' for Active; 'I' for Inactive)
REMARK    1  A    between atoms: _1  and  _5
REMARK    2  A    between atoms: _5  and  _6
REMARK    3  A    between atoms: _8  and  _10
REMARK    4  A    between atoms: _10  and  _11
REMARK    5  A    between atoms: _10  and  _13
REMARK    6  A    between atoms: _13  and  _14
REMARK    7  A    between atoms: _14  and  _15
REMARK    8  A    between atoms: _15  and  _16
REMARK    9  A    between atoms: _16  and  _17
REMARK   10  A    between atoms: _21  and  _23
REMARK   11  A    between atoms: _23  and  _24
REMARK   12  A    between atoms: _27  and  _29
REMARK   13  A    between atoms: _29  and  _30
REMARK   14  A    between atoms: _29  and  _32
REMARK   15  A    between atoms: _32  and  _33
REMARK   16  A    between atoms: _36  and  _38
REMARK   17  A    between atoms: _38  and  _39
REMARK   18  A    between atoms: _38  and  _41
REMARK   19  A    between atoms: _41  and  _42
REMARK   20  A    between atoms: _44  and  _46
REMARK   21  A    between atoms: _46  and  _47
REMARK   22  A    between atoms: _46  and  _49
REMARK   23  A    between atoms: _49  and  _50
REMARK   24  A    between atoms: _56  and  _58
REMARK   25  A    between atoms: _58  and  _59
REMARK   26  A    between atoms: _58  and  _61
REMARK   27  A    between atoms: _61  and  _62
REMARK   28  A    between atoms: _65  and  _67
REMARK   29  A    between atoms: _67  and  _68
REMARK   30  A    between atoms: _67  and  _70
REMARK   31  A    between atoms: _73  and  _75
REMARK   32  A    between atoms: _75  and  _76
REMARK   33  A    between atoms: _75  and  _78
REMARK   34  A    between atoms: _78  and  _79
REMARK   35  A    between atoms: _81  and  _83
REMARK   36  A    between atoms: _83  and  _84
REMARK   37  A    between atoms: _86  and  _88
REMARK   38  A    between atoms: _88  and  _89
REMARK   39  A    between atoms: _88  and  _91
REMARK   40  A    between atoms: _91  and  _92
REMARK   41  A    between atoms: _97  and  _98
REMARK   42  A    between atoms: _100  and  _102
REMARK   43  A    between atoms: _102  and  _103
REMARK   44  A    between atoms: _102  and  _105
REMARK   45  A    between atoms: _108  and  _110
REMARK   46  A    between atoms: _110  and  _111
REMARK   47  A    between atoms: _110  and  _113
REMARK   48  A    between atoms: _116  and  _118
REMARK   49  A    between atoms: _118  and  _119
REMARK   50  A    between atoms: _118  and  _121
REMARK   51  A    between atoms: _124  and  _126
REMARK   52  A    between atoms: _126  and  _127
REMARK   53  A    between atoms: _126  and  _129
REMARK   54  A    between atoms: _129  and  _130
REMARK   55  A    between atoms: _132  and  _134
REMARK   56  A    between atoms: _134  and  _135
REMARK   57  A    between atoms: _134  and  _137
REMARK   58  A    between atoms: _137  and  _138
REMARK   59  A    between atoms: _141  and  _143
REMARK   60  A    between atoms: _143  and  _144
REMARK   61  A    between atoms: _146  and  _148
REMARK   62  A    between atoms: _148  and  _149
REMARK   63  A    between atoms: _148  and  _151
REMARK   64  A    between atoms: _151  and  _152
REMARK   65  A    between atoms: _157  and  _158
REMARK   66  A    between atoms: _160  and  _162
REMARK   67  A    between atoms: _162  and  _163
REMARK   68  A    between atoms: _162  and  _165
REMARK   69  A    between atoms: _165  and  _166
REMARK   70  A    between atoms: _176  and  _178
REMARK   71  A    between atoms: _178  and  _179
REMARK   72  A    between atoms: _178  and  _181
REMARK   73  A    between atoms: _181  and  _182
REMARK   74  A    between atoms: _185  and  _187
REMARK   75  A    between atoms: _187  and  _188
REMARK   76  A    between atoms: _187  and  _190
REMARK   77  A    between atoms: _190  and  _191
REMARK   78  A    between atoms: _194  and  _196
REMARK   79  A    between atoms: _196  and  _197
REMARK   80  A    between atoms: _196  and  _199
REMARK   81  A    between atoms: _199  and  _200
REMARK   82  A    between atoms: _205  and  _206
REMARK   83  A    between atoms: _208  and  _210
REMARK   84  A    between atoms: _210  and  _211
REMARK                            x       y       z     vdW  Elec       q    Type
REMARK                         _______ _______ _______ _____ _____    ______ ____
ROOT
ATOM      1  CA  PHE A   2      47.586  52.164  60.130  0.00  0.00    +0.153 C 
ENDROOT
BRANCH   1   3
ATOM      2  C   SER A   1      45.294  52.972  60.060  0.00  0.00    +0.241 C 
ATOM      3  N   PHE A   2      46.447  52.872  60.715  0.00  0.00    -0.297 N 
ATOM      4  H   PHE A   2      46.540  53.303  61.657  0.00  0.00    +0.150 HD
ATOM      5  O   SER A   1      45.123  52.505  58.931  0.00  0.00    -0.274 OA
BRANCH   2   6
ATOM      6  CA  SER A   1      44.155  53.707  60.762  0.00  0.00    +0.174 C 
BRANCH   6   7
ATOM      7  N   SER A   1      43.256  54.198  59.729  0.00  0.00    -0.236 NA
ATOM      8  H   SER A   1      42.307  53.780  59.652  0.00  0.00    +0.142 HD
ENDBRANCH   6   7
BRANCH   6   9
ATOM      9  CB  SER A   1      43.407  52.732  61.671  0.00  0.00    +0.163 C 
BRANCH   9  10
ATOM     10  OG  SER A   1      44.310  51.911  62.388  0.00  0.00    -0.380 OA
ATOM     11  H   SER A   1      44.898  52.479  62.947  0.00  0.00    +0.211 HD
ENDBRANCH   9  10
ENDBRANCH   6   9
ENDBRANCH   2   6
ENDBRANCH   1   3
BRANCH   1  12
ATOM     12  C   PHE A   2      47.337  50.656  60.127  0.00  0.00    +0.241 C 
ATOM     13  N   ILE A   3      46.418  50.202  60.973  0.00  0.00    -0.298 N 
ATOM     14  H   ILE A   3      45.913  50.874  61.586  0.00  0.00    +0.150 HD
ATOM     15  O   PHE A   2      47.977  49.915  59.379  0.00  0.00    -0.273 OA
BRANCH  13  16
ATOM     16  CA  ILE A   3      46.103  48.779  61.059  0.00  0.00    +0.137 C 
BRANCH  16  17
ATOM     17  CB  ILE A   3      46.362  48.232  62.484  0.00  0.00    +0.026 C 
ATOM     18  CG2 ILE A   3      47.847  48.332  62.816  0.00  0.00    +0.002 C 
BRANCH  17  19
ATOM     19  CG1 ILE A   3      45.531  49.018  63.505  0.00  0.00    +0.002 C 
ATOM     20  CD1 ILE A   3      45.643  48.495  64.931  0.00  0.00    +0.000 C 
ENDBRANCH  17  19
ENDBRANCH  16  17
BRANCH  16  21
ATOM     21  C   ILE A   3      44.650  48.511  60.685  0.00  0.00    +0.227 C 
ATOM     22  O   ILE A   3      43.895  49.437  60.387  0.00  0.00    -0.286 OA
ENDBRANCH  16  21
ENDBRANCH  13  16
ENDBRANCH   1  12
BRANCH   1  23
ATOM     23  CB  PHE A   2      48.878  52.434  60.911  0.00  0.00    +0.055 C 
BRANCH  23  24
ATOM     24  CG  PHE A   2      49.326  53.870  60.893  0.00  0.00    -0.020 A 
ATOM     25  CD2 PHE A   2      50.237  54.329  61.841  0.00  0.00    -0.004 A 
ATOM     26  CE2 PHE A   2      50.695  55.646  61.818  0.00  0.00    -0.000 A 
ATOM     27  CZ  PHE A   2      50.239  56.521  60.838  0.00  0.00    -0.000 A 
ATOM     28  CE1 PHE A   2      49.326  56.077  59.885  0.00  0.00    -0.000 A 
ATOM     29  CD1 PHE A   2      48.874  54.755  59.917  0.00  0.00    -0.004 A 
ENDBRANCH  23  24
ENDBRANCH   1  23
TORSDOF 12
REMARK  Name = ../refined-set-2016/1ws4/1ws4_pocket.pdb
REMARK  84 active torsions:
REMARK  status: ('A' for Active; 'I' for Inactive)
REMARK    1  A    between atoms: _1  and  _5
REMARK    2  A    between atoms: _5  and  _6
REMARK    3  A    between atoms: _8  and  _10
REMARK    4  A    between atoms: _10  and  _11
REMARK    5  A    between atoms: _10  and  _13
REMARK    6  A    between atoms: _13  and  _14
REMARK    7  A    between atoms: _14  and  _15
REMARK    8  A    between atoms: _15  and  _16
REMARK    9  A    between atoms: _16  and  _17
REMARK   10  A    between atoms: _21  and  _23
REMARK   11  A    between atoms: _23  and  _24
REMARK   12  A    between atoms: _27  and  _29
REMARK   13  A    between atoms: _29  and  _30
REMARK   14  A    between atoms: _29  and  _32
REMARK   15  A    between atoms: _32  and  _33
REMARK   16  A    between atoms: _36  and  _38
REMARK   17  A    between atoms: _38  and  _39
REMARK   18  A    between atoms: _38  and  _41
REMARK   19  A    between atoms: _41  and  _42
REMARK   20  A    between atoms: _44  and  _46
REMARK   21  A    between atoms: _46  and  _47
REMARK   22  A    between atoms: _46  and  _49
REMARK   23  A    between atoms: _49  and  _50
REMARK   24  A    between atoms: _56  and  _58
REMARK   25  A    between atoms: _58  and  _59
REMARK   26  A    between atoms: _58  and  _61
REMARK   27  A    between atoms: _61  and  _62
REMARK   28  A    between atoms: _65  and  _67
REMARK   29  A    between atoms: _67  and  _68
REMARK   30  A    between atoms: _67  and  _70
REMARK   31  A    between atoms: _73  and  _75
REMARK   32  A    between atoms: _75  and  _76
REMARK   33  A    between atoms: _75  and  _78
REMARK   34  A    between atoms: _78  and  _79
REMARK   35  A    between atoms: _81  and  _83
REMARK   36  A    between atoms: _83  and  _84
REMARK   37  A    between atoms: _86  and  _88
REMARK   38  A    between atoms: _88  and  _89
REMARK   39  A    between atoms: _88  and  _91
REMARK   40  A    between atoms: _91  and  _92
REMARK   41  A    between atoms: _97  and  _98
REMARK   42  A    between atoms: _100  and  _102
REMARK   43  A    between atoms: _102  and  _103
REMARK   44  A    between atoms: _102  and  _105
REMARK   45  A    between atoms: _108  and  _110
REMARK   46  A    between atoms: _110  and  _111
REMARK   47  A    between atoms: _110  and  _113
REMARK   48  A    between atoms: _116  and  _118
REMARK   49  A    between atoms: _118  and  _119
REMARK   50  A    between atoms: _118  and  _121
REMARK   51  A    between atoms: _124  and  _126
REMARK   52  A    between atoms: _126  and  _127
REMARK   53  A    between atoms: _126  and  _129
REMARK   54  A    between atoms: _129  and  _130
REMARK   55  A    between atoms: _132  and  _134
REMARK   56  A    between atoms: _134  and  _135
REMARK   57  A    between atoms: _134  and  _137
REMARK   58  A    between atoms: _137  and  _138
REMARK   59  A    between atoms: _141  and  _143
REMARK   60  A    between atoms: _143  and  _144
REMARK   61  A    between atoms: _146  and  _148
REMARK   62  A    between atoms: _148  and  _149
REMARK   63  A    between atoms: _148  and  _151
REMARK   64  A    between atoms: _151  and  _152
REMARK   65  A    between atoms: _157  and  _158
REMARK   66  A    between atoms: _160  and  _162
REMARK   67  A    between atoms: _162  and  _163
REMARK   68  A    between atoms: _162  and  _165
REMARK   69  A    between atoms: _165  and  _166
REMARK   70  A    between atoms: _176  and  _178
REMARK   71  A    between atoms: _178  and  _179
REMARK   72  A    between atoms: _178  and  _181
REMARK   73  A    between atoms: _181  and  _182
REMARK   74  A    between atoms: _185  and  _187
REMARK   75  A    between atoms: _187  and  _188
REMARK   76  A    between atoms: _187  and  _190
REMARK   77  A    between atoms: _190  and  _191
REMARK   78  A    between atoms: _194  and  _196
REMARK   79  A    between atoms: _196  and  _197
REMARK   80  A    between atoms: _196  and  _199
REMARK   81  A    between atoms: _199  and  _200
REMARK   82  A    between atoms: _205  and  _206
REMARK   83  A    between atoms: _208  and  _210
REMARK   84  A    between atoms: _210  and  _211
REMARK                            x       y       z     vdW  Elec       q    Type
REMARK                         _______ _______ _______ _____ _____    ______ ____
ROOT
ATOM      1  CA  TYR A   4      49.334  56.045  73.887  0.00  0.00    +0.153 C 
ENDROOT
BRANCH   1   4
ATOM      2  C   GLY A   3      50.715  54.944  75.569  0.00  0.00    +0.243 C 
ATOM      3  O   GLY A   3      50.921  56.006  76.162  0.00  0.00    -0.273 OA
ATOM      4  N   TYR A   4      49.933  54.861  74.500  0.00  0.00    -0.297 N 
ATOM      5  H   TYR A   4      49.741  53.926  74.086  0.00  0.00    +0.150 HD
BRANCH   2   6
ATOM      6  CA  GLY A   3      51.328  53.647  76.074  0.00  0.00    +0.176 C 
BRANCH   6   9
ATOM      7  C   SER A   2      49.761  51.839  75.950  0.00  0.00    +0.243 C 
ATOM      8  O   SER A   2      49.131  52.333  76.886  0.00  0.00    -0.273 OA
ATOM      9  N   GLY A   3      50.847  52.419  75.459  0.00  0.00    -0.295 N 
ATOM     10  H   GLY A   3      51.347  52.003  74.647  0.00  0.00    +0.150 HD
BRANCH   7  11
ATOM     11  CA  SER A   2      49.267  50.535  75.313  0.00  0.00    +0.178 C 
BRANCH  11  13
ATOM     12  C   VAL A   1      47.306  51.725  74.515  0.00  0.00    +0.238 C 
ATOM     13  N   SER A   2      47.829  50.740  75.240  0.00  0.00    -0.295 N 
ATOM     14  H   SER A   2      47.197  50.103  75.766  0.00  0.00    +0.150 HD
ATOM     15  O   VAL A   1      47.982  52.475  73.802  0.00  0.00    -0.274 OA
BRANCH  12  16
ATOM     16  CA  VAL A   1      45.804  51.911  74.636  0.00  0.00    +0.145 C 
BRANCH  16  17
ATOM     17  CB  VAL A   1      45.159  52.083  73.259  0.00  0.00    +0.025 C 
ATOM     18  CG2 VAL A   1      43.678  52.411  73.428  0.00  0.00    +0.002 C 
ATOM     19  CG1 VAL A   1      45.306  50.789  72.471  0.00  0.00    +0.002 C 
ENDBRANCH  16  17
BRANCH  16  20
ATOM     20  N   VAL A   1      45.883  53.150  75.396  0.00  0.00    -0.238 NA
ATOM     21  H   VAL A   1      46.598  53.848  75.107  0.00  0.00    +0.142 HD
ENDBRANCH  16  20
ENDBRANCH  12  16
ENDBRANCH  11  13
BRANCH  11  22
ATOM     22  CB  SER A   2      49.877  50.309  73.928  0.00  0.00    +0.166 C 
BRANCH  22  23
ATOM     23  OG  SER A   2      49.604  48.983  73.486  0.00  0.00    -0.380 OA
ATOM     24  H   SER A   2      50.002  48.847  72.590  0.00  0.00    +0.211 HD
ENDBRANCH  22  23
ENDBRANCH  11  22
ENDBRANCH   7  11
ENDBRANCH   6   9
ENDBRANCH   2   6
ENDBRANCH   1   4
BRANCH   1  25
ATOM     25  C   TYR A   4      47.977  56.499  74.406  0.00  0.00    +0.241 C 
ATOM     26  O   TYR A   4      47.101  55.683  74.684  0.00  0.00    -0.273 OA
ATOM     27  N   VAL A   5      47.807  57.814  74.529  0.00  0.00    -0.297 N 
ATOM     28  H   VAL A   5      48.598  58.457  74.321  0.00  0.00    +0.150 HD
BRANCH  27  29
ATOM     29  CA  VAL A   5      46.526  58.362  74.952  0.00  0.00    +0.149 C 
BRANCH  29  30
ATOM     30  C   VAL A   5      45.769  58.584  73.644  0.00  0.00    +0.241 C 
ATOM     31  N   VAL A   6      44.581  58.001  73.538  0.00  0.00    -0.297 N 
ATOM     32  H   VAL A   6      44.212  57.447  74.337  0.00  0.00    +0.150 HD
ATOM     33  O   VAL A   5      46.266  59.262  72.739  0.00  0.00    -0.273 OA
BRANCH  31  34
ATOM     34  CA  VAL A   6      43.781  58.122  72.321  0.00  0.00    +0.149 C 
BRANCH  34  35
ATOM     35  C   VAL A   6      42.304  58.301  72.643  0.00  0.00    +0.241 C 
ATOM     36  O   VAL A   6      41.906  58.299  73.810  0.00  0.00    -0.273 OA
ATOM     37  N   VAL A   7      41.495  58.469  71.601  0.00  0.00    -0.298 N 
ATOM     38  H   VAL A   7      41.899  58.500  70.643  0.00  0.00    +0.150 HD
BRANCH  37  39
ATOM     39  CA  VAL A   7      40.054  58.611  71.773  0.00  0.00    +0.137 C 
BRANCH  39  40
ATOM     40  CB  VAL A   7      39.426  59.460  70.651  0.00  0.00    +0.026 C 
ATOM     41  CG2 VAL A   7      37.917  59.518  70.825  0.00  0.00    +0.002 C 
ATOM     42  CG1 VAL A   7      40.011  60.866  70.683  0.00  0.00    +0.002 C 
ENDBRANCH  39  40
BRANCH  39  43
ATOM     43  C   VAL A   7      39.509  57.192  71.705  0.00  0.00    +0.227 C 
ATOM     44  O   VAL A   7      39.501  56.576  70.644  0.00  0.00    -0.286 OA
ENDBRANCH  39  43
ENDBRANCH  37  39
ENDBRANCH  34  35
BRANCH  34  45
ATOM     45  CB  VAL A   6      43.925  56.859  71.435  0.00  0.00    +0.027 C 
ATOM     46  CG2 VAL A   6      43.437  55.630  72.198  0.00  0.00    +0.002 C 
ATOM     47  CG1 VAL A   6      45.378  56.672  71.019  0.00  0.00    +0.002 C 
ENDBRANCH  34  45
ENDBRANCH  31  34
ENDBRANCH  29  30
BRANCH  29  48
ATOM     48  CB  VAL A   5      46.674  59.710  75.691  0.00  0.00    +0.027 C 
ATOM     49  CG2 VAL A   5      47.347  59.496  77.040  0.00  0.00    +0.002 C 
ATOM     50  CG1 VAL A   5      45.301  60.326  75.906  0.00  0.00    +0.002 C 
ENDBRANCH  29  48
ENDBRANCH  27  29
ENDBRANCH   1  25
BRANCH   1  51
ATOM     51  CB  TYR A   4      49.220  55.818  72.380  0.00  0.00    +0.055 C 
BRANCH  51  52
ATOM     52  CG  TYR A   4      50.536  55.510  71.720  0.00  0.00    -0.020 A 
ATOM     53  CD2 TYR A   4      50.923  54.192  71.484  0.00  0.00    -0.001 A 
ATOM     54  CE2 TYR A   4      52.155  53.897  70.901  0.00  0.00    +0.036 A 
ATOM     55  CZ  TYR A   4      53.007  54.930  70.547  0.00  0.00    +0.134 A 
ATOM     56  CE1 TYR A   4      52.642  56.249  70.770  0.00  0.00    +0.036 A 
ATOM     57  CD1 TYR A   4      51.411  56.532  71.355  0.00  0.00    -0.001 A 
BRANCH  55  58
ATOM     58  OH  TYR A   4      54.228  54.643  69.978  0.00  0.00    -0.506 OA
ATOM     59  HH  TYR A   4      54.709  55.487  69.787  0.00  0.00    +0.292 HD
ENDBRANCH  55  58
ENDBRANCH  51  52
ENDBRANCH   1  51
TORSDOF 23
REMARK  Name = ../refined-set-2016/1ws4/1ws4_pocket.pdb
REMARK  84 active torsions:
REMARK  status: ('A' for Active; 'I' for Inactive)
REMARK    1  A    between atoms: _1  and  _5
REMARK    2  A    between atoms: _5  and  _6
REMARK    3  A    between atoms: _8  and  _10
REMARK    4  A    between atoms: _10  and  _11
REMARK    5  A    between atoms: _10  and  _13
REMARK    6  A    between atoms: _13  and  _14
REMARK    7  A    between atoms: _14  and  _15
REMARK    8  A    between atoms: _15  and  _16
REMARK    9  A    between atoms: _16  and  _17
REMARK   10  A    between atoms: _21  and  _23
REMARK   11  A    between atoms: _23  and  _24
REMARK   12  A    between atoms: _27  and  _29
REMARK   13  A    between atoms: _29  and  _30
REMARK   14  A    between atoms: _29  and  _32
REMARK   15  A    between atoms: _32  and  _33
REMARK   16  A    between atoms: _36  and  _38
REMARK   17  A    between atoms: _38  and  _39
REMARK   18  A    between atoms: _38  and  _41
REMARK   19  A    between atoms: _41  and  _42
REMARK   20  A    between atoms: _44  and  _46
REMARK   21  A    between atoms: _46  and  _47
REMARK   22  A    between atoms: _46  and  _49
REMARK   23  A    between atoms: _49  and  _50
REMARK   24  A    between atoms: _56  and  _58
REMARK   25  A    between atoms: _58  and  _59
REMARK   26  A    between atoms: _58  and  _61
REMARK   27  A    between atoms: _61  and  _62
REMARK   28  A    between atoms: _65  and  _67
REMARK   29  A    between atoms: _67  and  _68
REMARK   30  A    between atoms: _67  and  _70
REMARK   31  A    between atoms: _73  and  _75
REMARK   32  A    between atoms: _75  and  _76
REMARK   33  A    between atoms: _75  and  _78
REMARK   34  A    between atoms: _78  and  _79
REMARK   35  A    between atoms: _81  and  _83
REMARK   36  A    between atoms: _83  and  _84
REMARK   37  A    between atoms: _86  and  _88
REMARK   38  A    between atoms: _88  and  _89
REMARK   39  A    between atoms: _88  and  _91
REMARK   40  A    between atoms: _91  and  _92
REMARK   41  A    between atoms: _97  and  _98
REMARK   42  A    between atoms: _100  and  _102
REMARK   43  A    between atoms: _102  and  _103
REMARK   44  A    between atoms: _102  and  _105
REMARK   45  A    between atoms: _108  and  _110
REMARK   46  A    between atoms: _110  and  _111
REMARK   47  A    between atoms: _110  and  _113
REMARK   48  A    between atoms: _116  and  _118
REMARK   49  A    between atoms: _118  and  _119
REMARK   50  A    between atoms: _118  and  _121
REMARK   51  A    between atoms: _124  and  _126
REMARK   52  A    between atoms: _126  and  _127
REMARK   53  A    between atoms: _126  and  _129
REMARK   54  A    between atoms: _129  and  _130
REMARK   55  A    between atoms: _132  and  _134
REMARK   56  A    between atoms: _134  and  _135
REMARK   57  A    between atoms: _134  and  _137
REMARK   58  A    between atoms: _137  and  _138
REMARK   59  A    between atoms: _141  and  _143
REMARK   60  A    between atoms: _143  and  _144
REMARK   61  A    between atoms: _146  and  _148
REMARK   62  A    between atoms: _148  and  _149
REMARK   63  A    between atoms: _148  and  _151
REMARK   64  A    between atoms: _151  and  _152
REMARK   65  A    between atoms: _157  and  _158
REMARK   66  A    between atoms: _160  and  _162
REMARK   67  A    between atoms: _162  and  _163
REMARK   68  A    between atoms: _162  and  _165
REMARK   69  A    between atoms: _165  and  _166
REMARK   70  A    between atoms: _176  and  _178
REMARK   71  A    between atoms: _178  and  _179
REMARK   72  A    between atoms: _178  and  _181
REMARK   73  A    between atoms: _181  and  _182
REMARK   74  A    between atoms: _185  and  _187
REMARK   75  A    between atoms: _187  and  _188
REMARK   76  A    between atoms: _187  and  _190
REMARK   77  A    between atoms: _190  and  _191
REMARK   78  A    between atoms: _194  and  _196
REMARK   79  A    between atoms: _196  and  _197
REMARK   80  A    between atoms: _196  and  _199
REMARK   81  A    between atoms: _199  and  _200
REMARK   82  A    between atoms: _205  and  _206
REMARK   83  A    between atoms: _208  and  _210
REMARK   84  A    between atoms: _210  and  _211
REMARK                            x       y       z     vdW  Elec       q    Type
REMARK                         _______ _______ _______ _____ _____    ______ ____
ROOT
ATOM      1  CA  TRP A   5      43.920  54.800  66.561  0.00  0.00    +0.153 C 
ENDROOT
BRANCH   1   2
ATOM      2  C   TRP A   5      43.823  56.321  66.473  0.00  0.00    +0.241 C 
ATOM      3  N   LEU A   6      42.625  56.851  66.703  0.00  0.00    -0.297 N 
ATOM      4  H   LEU A   6      41.822  56.222  66.906  0.00  0.00    +0.150 HD
ATOM      5  O   TRP A   5      44.810  56.998  66.192  0.00  0.00    -0.273 OA
BRANCH   3   6
ATOM      6  CA  LEU A   6      42.409  58.296  66.678  0.00  0.00    +0.149 C 
BRANCH   6   7
ATOM      7  C   LEU A   6      43.105  58.901  67.901  0.00  0.00    +0.241 C 
ATOM      8  O   LEU A   6      42.627  58.759  69.032  0.00  0.00    -0.273 OA
ATOM      9  N   ASP A   7      44.236  59.563  67.668  0.00  0.00    -0.297 N 
ATOM     10  H   ASP A   7      44.573  59.644  66.687  0.00  0.00    +0.150 HD
BRANCH   9  11
ATOM     11  CA  ASP A   7      45.027  60.183  68.737  0.00  0.00    +0.160 C 
BRANCH  11  12
ATOM     12  C   ASP A   7      44.314  61.348  69.402  0.00  0.00    +0.241 C 
ATOM     13  O   ASP A   7      44.309  61.478  70.630  0.00  0.00    -0.273 OA
ATOM     14  N   TYR A   8      43.735  62.212  68.579  0.00  0.00    -0.298 N 
ATOM     15  H   TYR A   8      43.794  62.054  67.553  0.00  0.00    +0.150 HD
BRANCH  14  16
ATOM     16  CA  TYR A   8      43.020  63.374  69.079  0.00  0.00    +0.141 C 
BRANCH  16  17
ATOM     17  C   TYR A   8      42.249  64.008  67.937  0.00  0.00    +0.227 C 
ATOM     18  O   TYR A   8      42.487  63.699  66.768  0.00  0.00    -0.286 OA
ENDBRANCH  16  17
BRANCH  16  19
ATOM     19  CB  TYR A   8      44.011  64.389  69.674  0.00  0.00    +0.054 C 
BRANCH  19  20
ATOM     20  CG  TYR A   8      45.042  64.917  68.695  0.00  0.00    -0.020 A 
ATOM     21  CD2 TYR A   8      46.347  64.424  68.698  0.00  0.00    -0.001 A 
ATOM     22  CE2 TYR A   8      47.299  64.893  67.793  0.00  0.00    +0.036 A 
ATOM     23  CZ  TYR A   8      46.946  65.869  66.870  0.00  0.00    +0.134 A 
ATOM     24  CE1 TYR A   8      45.657  66.376  66.846  0.00  0.00    +0.036 A 
ATOM     25  CD1 TYR A   8      44.711  65.899  67.758  0.00  0.00    -0.001 A 
BRANCH  23  26
ATOM     26  OH  TYR A   8      47.883  66.329  65.971  0.00  0.00    -0.506 OA
ATOM     27  HH  TYR A   8      47.471  67.016  65.390  0.00  0.00    +0.292 HD
ENDBRANCH  23  26
ENDBRANCH  19  20
ENDBRANCH  16  19
ENDBRANCH  14  16
ENDBRANCH  11  12
BRANCH  11  28
ATOM     28  CB  ASP A   7      46.360  60.696  68.184  0.00  0.00    +0.143 C 
BRANCH  28  29
ATOM     29  CG  ASP A   7      47.199  59.597  67.570  0.00  0.00    +0.367 C 
ATOM     30  OD2 ASP A   7      47.449  58.590  68.262  0.00  0.00    -0.246 OA
ATOM     31  OD1 ASP A   7      47.609  59.748  66.402  0.00  0.00    -0.246 OA
ENDBRANCH  28  29
ENDBRANCH  11  28
ENDBRANCH   9  11
ENDBRANCH   6   7
BRANCH   6  32
ATOM     32  CB  LEU A   6      40.909  58.595  66.726  0.00  0.00    +0.029 C 
BRANCH  32  33
ATOM     33  CG  LEU A   6      40.453  60.058  66.756  0.00  0.00    +0.002 C 
ATOM     34  CD2 LEU A   6      38.937  60.082  66.849  0.00  0.00    +0.000 C 
ATOM     35  CD1 LEU A   6      40.926  60.801  65.512  0.00  0.00    +0.000 C 
ENDBRANCH  32  33
ENDBRANCH   6  32
ENDBRANCH   3   6
ENDBRANCH   1   2
BRANCH   1  37
ATOM     36  C   TYR A   4      45.394  53.271  65.342  0.00  0.00    +0.241 C 
ATOM     37  N   TRP A   5      45.237  54.343  66.120  0.00  0.00    -0.297 N 
ATOM     38  H   TRP A   5      46.080  54.872  66.423  0.00  0.00    +0.150 HD
ATOM     39  O   TYR A   4      44.450  52.595  64.932  0.00  0.00    -0.273 OA
BRANCH  36  40
ATOM     40  CA  TYR A   4      46.835  52.924  64.970  0.00  0.00    +0.153 C 
BRANCH  40  42
ATOM     41  C   GLY A   3      47.284  55.002  63.821  0.00  0.00    +0.243 C 
ATOM     42  N   TYR A   4      47.514  54.208  64.862  0.00  0.00    -0.297 N 
ATOM     43  H   TYR A   4      48.181  54.505  65.602  0.00  0.00    +0.150 HD
ATOM     44  O   GLY A   3      46.559  54.672  62.889  0.00  0.00    -0.273 OA
BRANCH  41  45
ATOM     45  CA  GLY A   3      47.951  56.363  63.816  0.00  0.00    +0.176 C 
BRANCH  45  47
ATOM     46  C   ILE A   2      46.499  58.181  63.111  0.00  0.00    +0.241 C 
ATOM     47  N   GLY A   3      46.822  57.260  64.014  0.00  0.00    -0.295 N 
ATOM     48  H   GLY A   3      46.255  57.179  64.882  0.00  0.00    +0.150 HD
ATOM     49  O   ILE A   2      47.158  58.395  62.094  0.00  0.00    -0.273 OA
BRANCH  46  50
ATOM     50  CA  ILE A   2      45.257  59.009  63.418  0.00  0.00    +0.148 C 
BRANCH  50  53
ATOM     51  C   SER A   1      45.083  61.285  64.227  0.00  0.00    +0.241 C 
ATOM     52  O   SER A   1      44.427  60.932  65.205  0.00  0.00    -0.274 OA
ATOM     53  N   ILE A   2      45.524  60.434  63.310  0.00  0.00    -0.297 N 
ATOM     54  H   ILE A   2      46.070  60.792  62.500  0.00  0.00    +0.150 HD
BRANCH  51  55
ATOM     55  CA  SER A   1      45.428  62.749  64.007  0.00  0.00    +0.174 C 
BRANCH  55  56
ATOM     56  N   SER A   1      44.292  63.594  64.347  0.00  0.00    -0.236 NA
ATOM     57  H   SER A   1      43.591  63.253  65.035  0.00  0.00    +0.142 HD
ENDBRANCH  55  56
BRANCH  55  58
ATOM     58  CB  SER A   1      46.634  63.136  64.871  0.00  0.00    +0.163 C 
BRANCH  58  59
ATOM     59  OG  SER A   1      47.725  62.254  64.670  0.00  0.00    -0.380 OA
ATOM     60  H   SER A   1      48.483  62.533  65.242  0.00  0.00    +0.211 HD
ENDBRANCH  58  59
ENDBRANCH  55  58
ENDBRANCH  51  55
ENDBRANCH  50  53
BRANCH  50  61
ATOM     61  CB  ILE A   2      44.139  58.570  62.443  0.00  0.00    +0.027 C 
ATOM     62  CG2 ILE A   2      43.960  57.053  62.509  0.00  0.00    +0.002 C 
BRANCH  61  63
ATOM     63  CG1 ILE A   2      42.826  59.274  62.795  0.00  0.00    +0.002 C 
ATOM     64  CD1 ILE A   2      41.683  58.966  61.833  0.00  0.00    +0.000 C 
ENDBRANCH  61  63
ENDBRANCH  50  61
ENDBRANCH  46  50
ENDBRANCH  45  47
ENDBRANCH  41  45
ENDBRANCH  40  42
BRANCH  40  65
ATOM     65  CB  TYR A   4      47.460  52.070  66.077  0.00  0.00    +0.055 C 
BRANCH  65  66
ATOM     66  CG  TYR A   4      48.595  51.186  65.612  0.00  0.00    -0.020 A 
ATOM     67  CD2 TYR A   4      48.928  50.024  66.310  0.00  0.00    -0.001 A 
ATOM     68  CE2 TYR A   4      49.993  49.215  65.901  0.00  0.00    +0.036 A 
ATOM     69  CZ  TYR A   4      50.730  49.571  64.781  0.00  0.00    +0.134 A 
ATOM     70  CE1 TYR A   4      50.417  50.719  64.072  0.00  0.00    +0.036 A 
ATOM     71  CD1 TYR A   4      49.354  51.520  64.490  0.00  0.00    -0.001 A 
BRANCH  69  72
ATOM     72  OH  TYR A   4      51.773  48.778  64.363  0.00  0.00    -0.506 OA
ATOM     73  HH  TYR A   4      52.186  49.176  63.556  0.00  0.00    +0.292 HD
ENDBRANCH  69  72
ENDBRANCH  65  66
ENDBRANCH  40  65
ENDBRANCH  36  40
ENDBRANCH   1  37
BRANCH   1  74
ATOM     74  CB  TRP A   5      43.670  54.352  68.008  0.00  0.00    +0.057 C 
BRANCH  74  75
ATOM     75  CG  TRP A   5      43.873  52.883  68.192  0.00  0.00    -0.002 A 
ATOM     76  CD2 TRP A   5      45.031  52.243  68.744  0.00  0.00    +0.013 A 
ATOM     77  CE3 TRP A   5      46.207  52.714  69.345  0.00  0.00    +0.001 A 
ATOM     78  CZ3 TRP A   5      47.158  51.790  69.771  0.00  0.00    +0.000 A 
ATOM     79  CH2 TRP A   5      46.951  50.406  69.607  0.00  0.00    +0.001 A 
ATOM     80  CZ2 TRP A   5      45.807  49.917  69.025  0.00  0.00    +0.017 A 
ATOM     81  CE2 TRP A   5      44.851  50.848  68.596  0.00  0.00    +0.056 A 
ATOM     82  NE1 TRP A   5      43.637  50.653  67.990  0.00  0.00    -0.352 N 
ATOM     83  HE1 TRP A   5      43.223  49.730  67.748  0.00  0.00    +0.166 HD
ATOM     84  CD1 TRP A   5      43.054  51.879  67.754  0.00  0.00    +0.068 A 
ENDBRANCH  74  75
ENDBRANCH   1  74
TORSDOF 32
REMARK  Name = ../refined-set-2016/1ws4/1ws4_pocket.pdb
REMARK  84 active torsions:
REMARK  status: ('A' for Active; 'I' for Inactive)
REMARK    1  A    between atoms: _1  and  _5
REMARK    2  A    between atoms: _5  and  _6
REMARK    3  A    between atoms: _8  and  _10
REMARK    4  A    between atoms: _10  and  _11
REMARK    5  A    between atoms: _10  and  _13
REMARK    6  A    between atoms: _13  and  _14
REMARK    7  A    between atoms: _14  and  _15
REMARK    8  A    between atoms: _15  and  _16
REMARK    9  A    between atoms: _16  and  _17
REMARK   10  A    between atoms: _21  and  _23
REMARK   11  A    between atoms: _23  and  _24
REMARK   12  A    between atoms: _27  and  _29
REMARK   13  A    between atoms: _29  and  _30
REMARK   14  A    between atoms: _29  and  _32
REMARK   15  A    between atoms: _32  and  _33
REMARK   16  A    between atoms: _36  and  _38
REMARK   17  A    between atoms: _38  and  _39
REMARK   18  A    between atoms: _38  and  _41
REMARK   19  A    between atoms: _41  and  _42
REMARK   20  A    between atoms: _44  and  _46
REMARK   21  A    between atoms: _46  and  _47
REMARK   22  A    between atoms: _46  and  _49
REMARK   23  A    between atoms: _49  and  _50
REMARK   24  A    between atoms: _56  and  _58
REMARK   25  A    between atoms: _58  and  _59
REMARK   26  A    between atoms: _58  and  _61
REMARK   27  A    between atoms: _61  and  _62
REMARK   28  A    between atoms: _65  and  _67
REMARK   29  A    between atoms: _67  and  _68
REMARK   30  A    between atoms: _67  and  _70
REMARK   31  A    between atoms: _73  and  _75
REMARK   32  A    between atoms: _75  and  _76
REMARK   33  A    between atoms: _75  and  _78
REMARK   34  A    between atoms: _78  and  _79
REMARK   35  A    between atoms: _81  and  _83
REMARK   36  A    between atoms: _83  and  _84
REMARK   37  A    between atoms: _86  and  _88
REMARK   38  A    between atoms: _88  and  _89
REMARK   39  A    between atoms: _88  and  _91
REMARK   40  A    between atoms: _91  and  _92
REMARK   41  A    between atoms: _97  and  _98
REMARK   42  A    between atoms: _100  and  _102
REMARK   43  A    between atoms: _102  and  _103
REMARK   44  A    between atoms: _102  and  _105
REMARK   45  A    between atoms: _108  and  _110
REMARK   46  A    between atoms: _110  and  _111
REMARK   47  A    between atoms: _110  and  _113
REMARK   48  A    between atoms: _116  and  _118
REMARK   49  A    between atoms: _118  and  _119
REMARK   50  A    between atoms: _118  and  _121
REMARK   51  A    between atoms: _124  and  _126
REMARK   52  A    between atoms: _126  and  _127
REMARK   53  A    between atoms: _126  and  _129
REMARK   54  A    between atoms: _129  and  _130
REMARK   55  A    between atoms: _132  and  _134
REMARK   56  A    between atoms: _134  and  _135
REMARK   57  A    between atoms: _134  and  _137
REMARK   58  A    between atoms: _137  and  _138
REMARK   59  A    between atoms: _141  and  _143
REMARK   60  A    between atoms: _143  and  _144
REMARK   61  A    between atoms: _146  and  _148
REMARK   62  A    between atoms: _148  and  _149
REMARK   63  A    between atoms: _148  and  _151
REMARK   64  A    between atoms: _151  and  _152
REMARK   65  A    between atoms: _157  and  _158
REMARK   66  A    between atoms: _160  and  _162
REMARK   67  A    between atoms: _162  and  _163
REMARK   68  A    between atoms: _162  and  _165
REMARK   69  A    between atoms: _165  and  _166
REMARK   70  A    between atoms: _176  and  _178
REMARK   71  A    between atoms: _178  and  _179
REMARK   72  A    between atoms: _178  and  _181
REMARK   73  A    between atoms: _181  and  _182
REMARK   74  A    between atoms: _185  and  _187
REMARK   75  A    between atoms: _187  and  _188
REMARK   76  A    between atoms: _187  and  _190
REMARK   77  A    between atoms: _190  and  _191
REMARK   78  A    between atoms: _194  and  _196
REMARK   79  A    between atoms: _196  and  _197
REMARK   80  A    between atoms: _196  and  _199
REMARK   81  A    between atoms: _199  and  _200
REMARK   82  A    between atoms: _205  and  _206
REMARK   83  A    between atoms: _208  and  _210
REMARK   84  A    between atoms: _210  and  _211
REMARK                            x       y       z     vdW  Elec       q    Type
REMARK                         _______ _______ _______ _____ _____    ______ ____
ROOT
ATOM      1  CA  ALA A   1      46.625  63.050  73.294  0.00  0.00    +0.133 C 
ATOM      2  CB  ALA A   1      47.511  62.254  72.347  0.00  0.00    +0.027 C 
ENDROOT
BRANCH   1   3
ATOM      3  N   ALA A   1      45.224  62.854  72.945  0.00  0.00    -0.239 NA
ATOM      4  H   ALA A   1      44.988  62.298  72.098  0.00  0.00    +0.142 HD
ENDBRANCH   1   3
BRANCH   1   5
ATOM      5  C   ALA A   1      47.023  64.525  73.265  0.00  0.00    +0.224 C 
ATOM      6  O   ALA A   1      46.494  65.307  72.476  0.00  0.00    -0.287 OA
ENDBRANCH   1   5
TORSDOF 2
REMARK  Name = ../refined-set-2016/1ws4/1ws4_pocket.pdb
REMARK  84 active torsions:
REMARK  status: ('A' for Active; 'I' for Inactive)
REMARK    1  A    between atoms: _1  and  _5
REMARK    2  A    between atoms: _5  and  _6
REMARK    3  A    between atoms: _8  and  _10
REMARK    4  A    between atoms: _10  and  _11
REMARK    5  A    between atoms: _10  and  _13
REMARK    6  A    between atoms: _13  and  _14
REMARK    7  A    between atoms: _14  and  _15
REMARK    8  A    between atoms: _15  and  _16
REMARK    9  A    between atoms: _16  and  _17
REMARK   10  A    between atoms: _21  and  _23
REMARK   11  A    between atoms: _23  and  _24
REMARK   12  A    between atoms: _27  and  _29
REMARK   13  A    between atoms: _29  and  _30
REMARK   14  A    between atoms: _29  and  _32
REMARK   15  A    between atoms: _32  and  _33
REMARK   16  A    between atoms: _36  and  _38
REMARK   17  A    between atoms: _38  and  _39
REMARK   18  A    between atoms: _38  and  _41
REMARK   19  A    between atoms: _41  and  _42
REMARK   20  A    between atoms: _44  and  _46
REMARK   21  A    between atoms: _46  and  _47
REMARK   22  A    between atoms: _46  and  _49
REMARK   23  A    between atoms: _49  and  _50
REMARK   24  A    between atoms: _56  and  _58
REMARK   25  A    between atoms: _58  and  _59
REMARK   26  A    between atoms: _58  and  _61
REMARK   27  A    between atoms: _61  and  _62
REMARK   28  A    between atoms: _65  and  _67
REMARK   29  A    between atoms: _67  and  _68
REMARK   30  A    between atoms: _67  and  _70
REMARK   31  A    between atoms: _73  and  _75
REMARK   32  A    between atoms: _75  and  _76
REMARK   33  A    between atoms: _75  and  _78
REMARK   34  A    between atoms: _78  and  _79
REMARK   35  A    between atoms: _81  and  _83
REMARK   36  A    between atoms: _83  and  _84
REMARK   37  A    between atoms: _86  and  _88
REMARK   38  A    between atoms: _88  and  _89
REMARK   39  A    between atoms: _88  and  _91
REMARK   40  A    between atoms: _91  and  _92
REMARK   41  A    between atoms: _97  and  _98
REMARK   42  A    between atoms: _100  and  _102
REMARK   43  A    between atoms: _102  and  _103
REMARK   44  A    between atoms: _102  and  _105
REMARK   45  A    between atoms: _108  and  _110
REMARK   46  A    between atoms: _110  and  _111
REMARK   47  A    between atoms: _110  and  _113
REMARK   48  A    between atoms: _116  and  _118
REMARK   49  A    between atoms: _118  and  _119
REMARK   50  A    between atoms: _118  and  _121
REMARK   51  A    between atoms: _124  and  _126
REMARK   52  A    between atoms: _126  and  _127
REMARK   53  A    between atoms: _126  and  _129
REMARK   54  A    between atoms: _129  and  _130
REMARK   55  A    between atoms: _132  and  _134
REMARK   56  A    between atoms: _134  and  _135
REMARK   57  A    between atoms: _134  and  _137
REMARK   58  A    between atoms: _137  and  _138
REMARK   59  A    between atoms: _141  and  _143
REMARK   60  A    between atoms: _143  and  _144
REMARK   61  A    between atoms: _146  and  _148
REMARK   62  A    between atoms: _148  and  _149
REMARK   63  A    between atoms: _148  and  _151
REMARK   64  A    between atoms: _151  and  _152
REMARK   65  A    between atoms: _157  and  _158
REMARK   66  A    between atoms: _160  and  _162
REMARK   67  A    between atoms: _162  and  _163
REMARK   68  A    between atoms: _162  and  _165
REMARK   69  A    between atoms: _165  and  _166
REMARK   70  A    between atoms: _176  and  _178
REMARK   71  A    between atoms: _178  and  _179
REMARK   72  A    between atoms: _178  and  _181
REMARK   73  A    between atoms: _181  and  _182
REMARK   74  A    between atoms: _185  and  _187
REMARK   75  A    between atoms: _187  and  _188
REMARK   76  A    between atoms: _187  and  _190
REMARK   77  A    between atoms: _190  and  _191
REMARK   78  A    between atoms: _194  and  _196
REMARK   79  A    between atoms: _196  and  _197
REMARK   80  A    between atoms: _196  and  _199
REMARK   81  A    between atoms: _199  and  _200
REMARK   82  A    between atoms: _205  and  _206
REMARK   83  A    between atoms: _208  and  _210
REMARK   84  A    between atoms: _210  and  _211
REMARK                            x       y       z     vdW  Elec       q    Type
REMARK                         _______ _______ _______ _____ _____    ______ ____
ROOT
ATOM      1  O   HOH     1      48.096  59.002  70.813  0.00  0.00    +0.000 OA
ENDROOT
TORSDOF 0
REMARK  Name = ../refined-set-2016/1ws4/1ws4_pocket.pdb
REMARK  84 active torsions:
REMARK  status: ('A' for Active; 'I' for Inactive)
REMARK    1  A    between atoms: _1  and  _5
REMARK    2  A    between atoms: _5  and  _6
REMARK    3  A    between atoms: _8  and  _10
REMARK    4  A    between atoms: _10  and  _11
REMARK    5  A    between atoms: _10  and  _13
REMARK    6  A    between atoms: _13  and  _14
REMARK    7  A    between atoms: _14  and  _15
REMARK    8  A    between atoms: _15  and  _16
REMARK    9  A    between atoms: _16  and  _17
REMARK   10  A    between atoms: _21  and  _23
REMARK   11  A    between atoms: _23  and  _24
REMARK   12  A    between atoms: _27  and  _29
REMARK   13  A    between atoms: _29  and  _30
REMARK   14  A    between atoms: _29  and  _32
REMARK   15  A    between atoms: _32  and  _33
REMARK   16  A    between atoms: _36  and  _38
REMARK   17  A    between atoms: _38  and  _39
REMARK   18  A    between atoms: _38  and  _41
REMARK   19  A    between atoms: _41  and  _42
REMARK   20  A    between atoms: _44  and  _46
REMARK   21  A    between atoms: _46  and  _47
REMARK   22  A    between atoms: _46  and  _49
REMARK   23  A    between atoms: _49  and  _50
REMARK   24  A    between atoms: _56  and  _58
REMARK   25  A    between atoms: _58  and  _59
REMARK   26  A    between atoms: _58  and  _61
REMARK   27  A    between atoms: _61  and  _62
REMARK   28  A    between atoms: _65  and  _67
REMARK   29  A    between atoms: _67  and  _68
REMARK   30  A    between atoms: _67  and  _70
REMARK   31  A    between atoms: _73  and  _75
REMARK   32  A    between atoms: _75  and  _76
REMARK   33  A    between atoms: _75  and  _78
REMARK   34  A    between atoms: _78  and  _79
REMARK   35  A    between atoms: _81  and  _83
REMARK   36  A    between atoms: _83  and  _84
REMARK   37  A    between atoms: _86  and  _88
REMARK   38  A    between atoms: _88  and  _89
REMARK   39  A    between atoms: _88  and  _91
REMARK   40  A    between atoms: _91  and  _92
REMARK   41  A    between atoms: _97  and  _98
REMARK   42  A    between atoms: _100  and  _102
REMARK   43  A    between atoms: _102  and  _103
REMARK   44  A    between atoms: _102  and  _105
REMARK   45  A    between atoms: _108  and  _110
REMARK   46  A    between atoms: _110  and  _111
REMARK   47  A    between atoms: _110  and  _113
REMARK   48  A    between atoms: _116  and  _118
REMARK   49  A    between atoms: _118  and  _119
REMARK   50  A    between atoms: _118  and  _121
REMARK   51  A    between atoms: _124  and  _126
REMARK   52  A    between atoms: _126  and  _127
REMARK   53  A    between atoms: _126  and  _129
REMARK   54  A    between atoms: _129  and  _130
REMARK   55  A    between atoms: _132  and  _134
REMARK   56  A    between atoms: _134  and  _135
REMARK   57  A    between atoms: _134  and  _137
REMARK   58  A    between atoms: _137  and  _138
REMARK   59  A    between atoms: _141  and  _143
REMARK   60  A    between atoms: _143  and  _144
REMARK   61  A    between atoms: _146  and  _148
REMARK   62  A    between atoms: _148  and  _149
REMARK   63  A    between atoms: _148  and  _151
REMARK   64  A    between atoms: _151  and  _152
REMARK   65  A    between atoms: _157  and  _158
REMARK   66  A    between atoms: _160  and  _162
REMARK   67  A    between atoms: _162  and  _163
REMARK   68  A    between atoms: _162  and  _165
REMARK   69  A    between atoms: _165  and  _166
REMARK   70  A    between atoms: _176  and  _178
REMARK   71  A    between atoms: _178  and  _179
REMARK   72  A    between atoms: _178  and  _181
REMARK   73  A    between atoms: _181  and  _182
REMARK   74  A    between atoms: _185  and  _187
REMARK   75  A    between atoms: _187  and  _188
REMARK   76  A    between atoms: _187  and  _190
REMARK   77  A    between atoms: _190  and  _191
REMARK   78  A    between atoms: _194  and  _196
REMARK   79  A    between atoms: _196  and  _197
REMARK   80  A    between atoms: _196  and  _199
REMARK   81  A    between atoms: _199  and  _200
REMARK   82  A    between atoms: _205  and  _206
REMARK   83  A    between atoms: _208  and  _210
REMARK   84  A    between atoms: _210  and  _211
REMARK                            x       y       z     vdW  Elec       q    Type
REMARK                         _______ _______ _______ _____ _____    ______ ____
ROOT
ATOM      1  O   HOH     1      49.701  62.085  66.648  0.00  0.00    +0.000 OA
ENDROOT
TORSDOF 0
REMARK  Name = ../refined-set-2016/1ws4/1ws4_pocket.pdb
REMARK  84 active torsions:
REMARK  status: ('A' for Active; 'I' for Inactive)
REMARK    1  A    between atoms: _1  and  _5
REMARK    2  A    between atoms: _5  and  _6
REMARK    3  A    between atoms: _8  and  _10
REMARK    4  A    between atoms: _10  and  _11
REMARK    5  A    between atoms: _10  and  _13
REMARK    6  A    between atoms: _13  and  _14
REMARK    7  A    between atoms: _14  and  _15
REMARK    8  A    between atoms: _15  and  _16
REMARK    9  A    between atoms: _16  and  _17
REMARK   10  A    between atoms: _21  and  _23
REMARK   11  A    between atoms: _23  and  _24
REMARK   12  A    between atoms: _27  and  _29
REMARK   13  A    between atoms: _29  and  _30
REMARK   14  A    between atoms: _29  and  _32
REMARK   15  A    between atoms: _32  and  _33
REMARK   16  A    between atoms: _36  and  _38
REMARK   17  A    between atoms: _38  and  _39
REMARK   18  A    between atoms: _38  and  _41
REMARK   19  A    between atoms: _41  and  _42
REMARK   20  A    between atoms: _44  and  _46
REMARK   21  A    between atoms: _46  and  _47
REMARK   22  A    between atoms: _46  and  _49
REMARK   23  A    between atoms: _49  and  _50
REMARK   24  A    between atoms: _56  and  _58
REMARK   25  A    between atoms: _58  and  _59
REMARK   26  A    between atoms: _58  and  _61
REMARK   27  A    between atoms: _61  and  _62
REMARK   28  A    between atoms: _65  and  _67
REMARK   29  A    between atoms: _67  and  _68
REMARK   30  A    between atoms: _67  and  _70
REMARK   31  A    between atoms: _73  and  _75
REMARK   32  A    between atoms: _75  and  _76
REMARK   33  A    between atoms: _75  and  _78
REMARK   34  A    between atoms: _78  and  _79
REMARK   35  A    between atoms: _81  and  _83
REMARK   36  A    between atoms: _83  and  _84
REMARK   37  A    between atoms: _86  and  _88
REMARK   38  A    between atoms: _88  and  _89
REMARK   39  A    between atoms: _88  and  _91
REMARK   40  A    between atoms: _91  and  _92
REMARK   41  A    between atoms: _97  and  _98
REMARK   42  A    between atoms: _100  and  _102
REMARK   43  A    between atoms: _102  and  _103
REMARK   44  A    between atoms: _102  and  _105
REMARK   45  A    between atoms: _108  and  _110
REMARK   46  A    between atoms: _110  and  _111
REMARK   47  A    between atoms: _110  and  _113
REMARK   48  A    between atoms: _116  and  _118
REMARK   49  A    between atoms: _118  and  _119
REMARK   50  A    between atoms: _118  and  _121
REMARK   51  A    between atoms: _124  and  _126
REMARK   52  A    between atoms: _126  and  _127
REMARK   53  A    between atoms: _126  and  _129
REMARK   54  A    between atoms: _129  and  _130
REMARK   55  A    between atoms: _132  and  _134
REMARK   56  A    between atoms: _134  and  _135
REMARK   57  A    between atoms: _134  and  _137
REMARK   58  A    between atoms: _137  and  _138
REMARK   59  A    between atoms: _141  and  _143
REMARK   60  A    between atoms: _143  and  _144
REMARK   61  A    between atoms: _146  and  _148
REMARK   62  A    between atoms: _148  and  _149
REMARK   63  A    between atoms: _148  and  _151
REMARK   64  A    between atoms: _151  and  _152
REMARK   65  A    between atoms: _157  and  _158
REMARK   66  A    between atoms: _160  and  _162
REMARK   67  A    between atoms: _162  and  _163
REMARK   68  A    between atoms: _162  and  _165
REMARK   69  A    between atoms: _165  and  _166
REMARK   70  A    between atoms: _176  and  _178
REMARK   71  A    between atoms: _178  and  _179
REMARK   72  A    between atoms: _178  and  _181
REMARK   73  A    between atoms: _181  and  _182
REMARK   74  A    between atoms: _185  and  _187
REMARK   75  A    between atoms: _187  and  _188
REMARK   76  A    between atoms: _187  and  _190
REMARK   77  A    between atoms: _190  and  _191
REMARK   78  A    between atoms: _194  and  _196
REMARK   79  A    between atoms: _196  and  _197
REMARK   80  A    between atoms: _196  and  _199
REMARK   81  A    between atoms: _199  and  _200
REMARK   82  A    between atoms: _205  and  _206
REMARK   83  A    between atoms: _208  and  _210
REMARK   84  A    between atoms: _210  and  _211
REMARK                            x       y       z     vdW  Elec       q    Type
REMARK                         _______ _______ _______ _____ _____    ______ ____
ROOT
ATOM      1  O   HOH     1      50.276  59.614  74.480  0.00  0.00    +0.000 OA
ENDROOT
TORSDOF 0
REMARK  Name = ../refined-set-2016/1ws4/1ws4_pocket.pdb
REMARK  84 active torsions:
REMARK  status: ('A' for Active; 'I' for Inactive)
REMARK    1  A    between atoms: _1  and  _5
REMARK    2  A    between atoms: _5  and  _6
REMARK    3  A    between atoms: _8  and  _10
REMARK    4  A    between atoms: _10  and  _11
REMARK    5  A    between atoms: _10  and  _13
REMARK    6  A    between atoms: _13  and  _14
REMARK    7  A    between atoms: _14  and  _15
REMARK    8  A    between atoms: _15  and  _16
REMARK    9  A    between atoms: _16  and  _17
REMARK   10  A    between atoms: _21  and  _23
REMARK   11  A    between atoms: _23  and  _24
REMARK   12  A    between atoms: _27  and  _29
REMARK   13  A    between atoms: _29  and  _30
REMARK   14  A    between atoms: _29  and  _32
REMARK   15  A    between atoms: _32  and  _33
REMARK   16  A    between atoms: _36  and  _38
REMARK   17  A    between atoms: _38  and  _39
REMARK   18  A    between atoms: _38  and  _41
REMARK   19  A    between atoms: _41  and  _42
REMARK   20  A    between atoms: _44  and  _46
REMARK   21  A    between atoms: _46  and  _47
REMARK   22  A    between atoms: _46  and  _49
REMARK   23  A    between atoms: _49  and  _50
REMARK   24  A    between atoms: _56  and  _58
REMARK   25  A    between atoms: _58  and  _59
REMARK   26  A    between atoms: _58  and  _61
REMARK   27  A    between atoms: _61  and  _62
REMARK   28  A    between atoms: _65  and  _67
REMARK   29  A    between atoms: _67  and  _68
REMARK   30  A    between atoms: _67  and  _70
REMARK   31  A    between atoms: _73  and  _75
REMARK   32  A    between atoms: _75  and  _76
REMARK   33  A    between atoms: _75  and  _78
REMARK   34  A    between atoms: _78  and  _79
REMARK   35  A    between atoms: _81  and  _83
REMARK   36  A    between atoms: _83  and  _84
REMARK   37  A    between atoms: _86  and  _88
REMARK   38  A    between atoms: _88  and  _89
REMARK   39  A    between atoms: _88  and  _91
REMARK   40  A    between atoms: _91  and  _92
REMARK   41  A    between atoms: _97  and  _98
REMARK   42  A    between atoms: _100  and  _102
REMARK   43  A    between atoms: _102  and  _103
REMARK   44  A    between atoms: _102  and  _105
REMARK   45  A    between atoms: _108  and  _110
REMARK   46  A    between atoms: _110  and  _111
REMARK   47  A    between atoms: _110  and  _113
REMARK   48  A    between atoms: _116  and  _118
REMARK   49  A    between atoms: _118  and  _119
REMARK   50  A    between atoms: _118  and  _121
REMARK   51  A    between atoms: _124  and  _126
REMARK   52  A    between atoms: _126  and  _127
REMARK   53  A    between atoms: _126  and  _129
REMARK   54  A    between atoms: _129  and  _130
REMARK   55  A    between atoms: _132  and  _134
REMARK   56  A    between atoms: _134  and  _135
REMARK   57  A    between atoms: _134  and  _137
REMARK   58  A    between atoms: _137  and  _138
REMARK   59  A    between atoms: _141  and  _143
REMARK   60  A    between atoms: _143  and  _144
REMARK   61  A    between atoms: _146  and  _148
REMARK   62  A    between atoms: _148  and  _149
REMARK   63  A    between atoms: _148  and  _151
REMARK   64  A    between atoms: _151  and  _152
REMARK   65  A    between atoms: _157  and  _158
REMARK   66  A    between atoms: _160  and  _162
REMARK   67  A    between atoms: _162  and  _163
REMARK   68  A    between atoms: _162  and  _165
REMARK   69  A    between atoms: _165  and  _166
REMARK   70  A    between atoms: _176  and  _178
REMARK   71  A    between atoms: _178  and  _179
REMARK   72  A    between atoms: _178  and  _181
REMARK   73  A    between atoms: _181  and  _182
REMARK   74  A    between atoms: _185  and  _187
REMARK   75  A    between atoms: _187  and  _188
REMARK   76  A    between atoms: _187  and  _190
REMARK   77  A    between atoms: _190  and  _191
REMARK   78  A    between atoms: _194  and  _196
REMARK   79  A    between atoms: _196  and  _197
REMARK   80  A    between atoms: _196  and  _199
REMARK   81  A    between atoms: _199  and  _200
REMARK   82  A    between atoms: _205  and  _206
REMARK   83  A    between atoms: _208  and  _210
REMARK   84  A    between atoms: _210  and  _211
REMARK                            x       y       z     vdW  Elec       q    Type
REMARK                         _______ _______ _______ _____ _____    ______ ____
ROOT
ATOM      1  O   HOH     1      50.310  60.081  71.229  0.00  0.00    +0.000 OA
ENDROOT
TORSDOF 0
REMARK  Name = ../refined-set-2016/1ws4/1ws4_pocket.pdb
REMARK  84 active torsions:
REMARK  status: ('A' for Active; 'I' for Inactive)
REMARK    1  A    between atoms: _1  and  _5
REMARK    2  A    between atoms: _5  and  _6
REMARK    3  A    between atoms: _8  and  _10
REMARK    4  A    between atoms: _10  and  _11
REMARK    5  A    between atoms: _10  and  _13
REMARK    6  A    between atoms: _13  and  _14
REMARK    7  A    between atoms: _14  and  _15
REMARK    8  A    between atoms: _15  and  _16
REMARK    9  A    between atoms: _16  and  _17
REMARK   10  A    between atoms: _21  and  _23
REMARK   11  A    between atoms: _23  and  _24
REMARK   12  A    between atoms: _27  and  _29
REMARK   13  A    between atoms: _29  and  _30
REMARK   14  A    between atoms: _29  and  _32
REMARK   15  A    between atoms: _32  and  _33
REMARK   16  A    between atoms: _36  and  _38
REMARK   17  A    between atoms: _38  and  _39
REMARK   18  A    between atoms: _38  and  _41
REMARK   19  A    between atoms: _41  and  _42
REMARK   20  A    between atoms: _44  and  _46
REMARK   21  A    between atoms: _46  and  _47
REMARK   22  A    between atoms: _46  and  _49
REMARK   23  A    between atoms: _49  and  _50
REMARK   24  A    between atoms: _56  and  _58
REMARK   25  A    between atoms: _58  and  _59
REMARK   26  A    between atoms: _58  and  _61
REMARK   27  A    between atoms: _61  and  _62
REMARK   28  A    between atoms: _65  and  _67
REMARK   29  A    between atoms: _67  and  _68
REMARK   30  A    between atoms: _67  and  _70
REMARK   31  A    between atoms: _73  and  _75
REMARK   32  A    between atoms: _75  and  _76
REMARK   33  A    between atoms: _75  and  _78
REMARK   34  A    between atoms: _78  and  _79
REMARK   35  A    between atoms: _81  and  _83
REMARK   36  A    between atoms: _83  and  _84
REMARK   37  A    between atoms: _86  and  _88
REMARK   38  A    between atoms: _88  and  _89
REMARK   39  A    between atoms: _88  and  _91
REMARK   40  A    between atoms: _91  and  _92
REMARK   41  A    between atoms: _97  and  _98
REMARK   42  A    between atoms: _100  and  _102
REMARK   43  A    between atoms: _102  and  _103
REMARK   44  A    between atoms: _102  and  _105
REMARK   45  A    between atoms: _108  and  _110
REMARK   46  A    between atoms: _110  and  _111
REMARK   47  A    between atoms: _110  and  _113
REMARK   48  A    between atoms: _116  and  _118
REMARK   49  A    between atoms: _118  and  _119
REMARK   50  A    between atoms: _118  and  _121
REMARK   51  A    between atoms: _124  and  _126
REMARK   52  A    between atoms: _126  and  _127
REMARK   53  A    between atoms: _126  and  _129
REMARK   54  A    between atoms: _129  and  _130
REMARK   55  A    between atoms: _132  and  _134
REMARK   56  A    between atoms: _134  and  _135
REMARK   57  A    between atoms: _134  and  _137
REMARK   58  A    between atoms: _137  and  _138
REMARK   59  A    between atoms: _141  and  _143
REMARK   60  A    between atoms: _143  and  _144
REMARK   61  A    between atoms: _146  and  _148
REMARK   62  A    between atoms: _148  and  _149
REMARK   63  A    between atoms: _148  and  _151
REMARK   64  A    between atoms: _151  and  _152
REMARK   65  A    between atoms: _157  and  _158
REMARK   66  A    between atoms: _160  and  _162
REMARK   67  A    between atoms: _162  and  _163
REMARK   68  A    between atoms: _162  and  _165
REMARK   69  A    between atoms: _165  and  _166
REMARK   70  A    between atoms: _176  and  _178
REMARK   71  A    between atoms: _178  and  _179
REMARK   72  A    between atoms: _178  and  _181
REMARK   73  A    between atoms: _181  and  _182
REMARK   74  A    between atoms: _185  and  _187
REMARK   75  A    between atoms: _187  and  _188
REMARK   76  A    between atoms: _187  and  _190
REMARK   77  A    between atoms: _190  and  _191
REMARK   78  A    between atoms: _194  and  _196
REMARK   79  A    between atoms: _196  and  _197
REMARK   80  A    between atoms: _196  and  _199
REMARK   81  A    between atoms: _199  and  _200
REMARK   82  A    between atoms: _205  and  _206
REMARK   83  A    between atoms: _208  and  _210
REMARK   84  A    between atoms: _210  and  _211
REMARK                            x       y       z     vdW  Elec       q    Type
REMARK                         _______ _______ _______ _____ _____    ______ ____
ROOT
ATOM      1  O   HOH     1      52.252  59.887  68.659  0.00  0.00    +0.000 OA
ENDROOT
TORSDOF 0
REMARK  Name = ../refined-set-2016/1ws4/1ws4_pocket.pdb
REMARK  84 active torsions:
REMARK  status: ('A' for Active; 'I' for Inactive)
REMARK    1  A    between atoms: _1  and  _5
REMARK    2  A    between atoms: _5  and  _6
REMARK    3  A    between atoms: _8  and  _10
REMARK    4  A    between atoms: _10  and  _11
REMARK    5  A    between atoms: _10  and  _13
REMARK    6  A    between atoms: _13  and  _14
REMARK    7  A    between atoms: _14  and  _15
REMARK    8  A    between atoms: _15  and  _16
REMARK    9  A    between atoms: _16  and  _17
REMARK   10  A    between atoms: _21  and  _23
REMARK   11  A    between atoms: _23  and  _24
REMARK   12  A    between atoms: _27  and  _29
REMARK   13  A    between atoms: _29  and  _30
REMARK   14  A    between atoms: _29  and  _32
REMARK   15  A    between atoms: _32  and  _33
REMARK   16  A    between atoms: _36  and  _38
REMARK   17  A    between atoms: _38  and  _39
REMARK   18  A    between atoms: _38  and  _41
REMARK   19  A    between atoms: _41  and  _42
REMARK   20  A    between atoms: _44  and  _46
REMARK   21  A    between atoms: _46  and  _47
REMARK   22  A    between atoms: _46  and  _49
REMARK   23  A    between atoms: _49  and  _50
REMARK   24  A    between atoms: _56  and  _58
REMARK   25  A    between atoms: _58  and  _59
REMARK   26  A    between atoms: _58  and  _61
REMARK   27  A    between atoms: _61  and  _62
REMARK   28  A    between atoms: _65  and  _67
REMARK   29  A    between atoms: _67  and  _68
REMARK   30  A    between atoms: _67  and  _70
REMARK   31  A    between atoms: _73  and  _75
REMARK   32  A    between atoms: _75  and  _76
REMARK   33  A    between atoms: _75  and  _78
REMARK   34  A    between atoms: _78  and  _79
REMARK   35  A    between atoms: _81  and  _83
REMARK   36  A    between atoms: _83  and  _84
REMARK   37  A    between atoms: _86  and  _88
REMARK   38  A    between atoms: _88  and  _89
REMARK   39  A    between atoms: _88  and  _91
REMARK   40  A    between atoms: _91  and  _92
REMARK   41  A    between atoms: _97  and  _98
REMARK   42  A    between atoms: _100  and  _102
REMARK   43  A    between atoms: _102  and  _103
REMARK   44  A    between atoms: _102  and  _105
REMARK   45  A    between atoms: _108  and  _110
REMARK   46  A    between atoms: _110  and  _111
REMARK   47  A    between atoms: _110  and  _113
REMARK   48  A    between atoms: _116  and  _118
REMARK   49  A    between atoms: _118  and  _119
REMARK   50  A    between atoms: _118  and  _121
REMARK   51  A    between atoms: _124  and  _126
REMARK   52  A    between atoms: _126  and  _127
REMARK   53  A    between atoms: _126  and  _129
REMARK   54  A    between atoms: _129  and  _130
REMARK   55  A    between atoms: _132  and  _134
REMARK   56  A    between atoms: _134  and  _135
REMARK   57  A    between atoms: _134  and  _137
REMARK   58  A    between atoms: _137  and  _138
REMARK   59  A    between atoms: _141  and  _143
REMARK   60  A    between atoms: _143  and  _144
REMARK   61  A    between atoms: _146  and  _148
REMARK   62  A    between atoms: _148  and  _149
REMARK   63  A    between atoms: _148  and  _151
REMARK   64  A    between atoms: _151  and  _152
REMARK   65  A    between atoms: _157  and  _158
REMARK   66  A    between atoms: _160  and  _162
REMARK   67  A    between atoms: _162  and  _163
REMARK   68  A    between atoms: _162  and  _165
REMARK   69  A    between atoms: _165  and  _166
REMARK   70  A    between atoms: _176  and  _178
REMARK   71  A    between atoms: _178  and  _179
REMARK   72  A    between atoms: _178  and  _181
REMARK   73  A    between atoms: _181  and  _182
REMARK   74  A    between atoms: _185  and  _187
REMARK   75  A    between atoms: _187  and  _188
REMARK   76  A    between atoms: _187  and  _190
REMARK   77  A    between atoms: _190  and  _191
REMARK   78  A    between atoms: _194  and  _196
REMARK   79  A    between atoms: _196  and  _197
REMARK   80  A    between atoms: _196  and  _199
REMARK   81  A    between atoms: _199  and  _200
REMARK   82  A    between atoms: _205  and  _206
REMARK   83  A    between atoms: _208  and  _210
REMARK   84  A    between atoms: _210  and  _211
REMARK                            x       y       z     vdW  Elec       q    Type
REMARK                         _______ _______ _______ _____ _____    ______ ____
ROOT
ATOM      1  O   HOH     1      53.885  60.635  64.341  0.00  0.00    +0.000 OA
ENDROOT
TORSDOF 0
