REMARK  Name = ../refined-set-2016/1u1b/1u1b_pocket.pdb
REMARK  185 active torsions:
REMARK  status: ('A' for Active; 'I' for Inactive)
REMARK    1  A    between atoms: _1  and  _3
REMARK    2  A    between atoms: _3  and  _4
REMARK    3  A    between atoms: _3  and  _6
REMARK    4  A    between atoms: _6  and  _7
REMARK    5  A    between atoms: _7  and  _8
REMARK    6  A    between atoms: _11  and  _13
REMARK    7  A    between atoms: _13  and  _14
REMARK    8  A    between atoms: _13  and  _16
REMARK    9  A    between atoms: _16  and  _17
REMARK   10  A    between atoms: _20  and  _22
REMARK   11  A    between atoms: _22  and  _23
REMARK   12  A    between atoms: _26  and  _28
REMARK   13  A    between atoms: _28  and  _29
REMARK   14  A    between atoms: _32  and  _34
REMARK   15  A    between atoms: _34  and  _35
REMARK   16  A    between atoms: _34  and  _37
REMARK   17  A    between atoms: _37  and  _38
REMARK   18  A    between atoms: _38  and  _39
REMARK   19  A    between atoms: _39  and  _40
REMARK   20  A    between atoms: _40  and  _41
REMARK   21  A    between atoms: _45  and  _47
REMARK   22  A    between atoms: _47  and  _48
REMARK   23  A    between atoms: _47  and  _50
REMARK   24  A    between atoms: _50  and  _51
REMARK   25  A    between atoms: _57  and  _59
REMARK   26  A    between atoms: _59  and  _60
REMARK   27  A    between atoms: _59  and  _62
REMARK   28  A    between atoms: _62  and  _63
REMARK   29  A    between atoms: _63  and  _64
REMARK   30  A    between atoms: _64  and  _65
REMARK   31  A    between atoms: _74  and  _76
REMARK   32  A    between atoms: _76  and  _77
REMARK   33  A    between atoms: _76  and  _79
REMARK   34  A    between atoms: _79  and  _80
REMARK   35  A    between atoms: _80  and  _81
REMARK   36  A    between atoms: _86  and  _88
REMARK   37  A    between atoms: _88  and  _89
REMARK   38  A    between atoms: _88  and  _91
REMARK   39  A    between atoms: _91  and  _92
REMARK   40  A    between atoms: _97  and  _99
REMARK   41  A    between atoms: _99  and  _100
REMARK   42  A    between atoms: _99  and  _102
REMARK   43  A    between atoms: _102  and  _103
REMARK   44  A    between atoms: _103  and  _104
REMARK   45  A    between atoms: _106  and  _108
REMARK   46  A    between atoms: _108  and  _109
REMARK   47  A    between atoms: _108  and  _111
REMARK   48  A    between atoms: _111  and  _112
REMARK   49  A    between atoms: _115  and  _117
REMARK   50  A    between atoms: _117  and  _118
REMARK   51  A    between atoms: _117  and  _120
REMARK   52  A    between atoms: _120  and  _121
REMARK   53  A    between atoms: _121  and  _122
REMARK   54  A    between atoms: _122  and  _123
REMARK   55  A    between atoms: _132  and  _134
REMARK   56  A    between atoms: _134  and  _135
REMARK   57  A    between atoms: _134  and  _137
REMARK   58  A    between atoms: _137  and  _138
REMARK   59  A    between atoms: _138  and  _139
REMARK   60  A    between atoms: _139  and  _140
REMARK   61  A    between atoms: _140  and  _141
REMARK   62  A    between atoms: _146  and  _147
REMARK   63  A    between atoms: _152  and  _154
REMARK   64  A    between atoms: _154  and  _155
REMARK   65  A    between atoms: _154  and  _157
REMARK   66  A    between atoms: _160  and  _162
REMARK   67  A    between atoms: _162  and  _163
REMARK   68  A    between atoms: _162  and  _165
REMARK   69  A    between atoms: _165  and  _166
REMARK   70  A    between atoms: _171  and  _173
REMARK   71  A    between atoms: _173  and  _174
REMARK   72  A    between atoms: _173  and  _176
REMARK   73  A    between atoms: _176  and  _177
REMARK   74  A    between atoms: _180  and  _182
REMARK   75  A    between atoms: _182  and  _183
REMARK   76  A    between atoms: _182  and  _185
REMARK   77  A    between atoms: _185  and  _186
REMARK   78  A    between atoms: _192  and  _194
REMARK   79  A    between atoms: _194  and  _195
REMARK   80  A    between atoms: _194  and  _197
REMARK   81  A    between atoms: _200  and  _202
REMARK   82  A    between atoms: _202  and  _203
REMARK   83  A    between atoms: _202  and  _205
REMARK   84  A    between atoms: _208  and  _210
REMARK   85  A    between atoms: _210  and  _211
REMARK   86  A    between atoms: _214  and  _216
REMARK   87  A    between atoms: _223  and  _226
REMARK   88  A    between atoms: _226  and  _227
REMARK   89  A    between atoms: _227  and  _228
REMARK   90  A    between atoms: _228  and  _229
REMARK   91  A    between atoms: _229  and  _230
REMARK   92  A    between atoms: _236  and  _239
REMARK   93  A    between atoms: _239  and  _240
REMARK   94  A    between atoms: _252  and  _255
REMARK   95  A    between atoms: _255  and  _256
REMARK   96  A    between atoms: _256  and  _257
REMARK   97  A    between atoms: _264  and  _267
REMARK   98  A    between atoms: _267  and  _268
REMARK   99  A    between atoms: _273  and  _276
REMARK  100  A    between atoms: _276  and  _277
REMARK  101  A    between atoms: _284  and  _285
REMARK  102  A    between atoms: _289  and  _291
REMARK  103  A    between atoms: _291  and  _292
REMARK  104  A    between atoms: _291  and  _294
REMARK  105  A    between atoms: _294  and  _295
REMARK  106  A    between atoms: _300  and  _301
REMARK  107  A    between atoms: _303  and  _305
REMARK  108  A    between atoms: _305  and  _306
REMARK  109  A    between atoms: _305  and  _308
REMARK  110  A    between atoms: _308  and  _309
REMARK  111  A    between atoms: _312  and  _314
REMARK  112  A    between atoms: _314  and  _315
REMARK  113  A    between atoms: _314  and  _317
REMARK  114  A    between atoms: _317  and  _318
REMARK  115  A    between atoms: _321  and  _323
REMARK  116  A    between atoms: _323  and  _324
REMARK  117  A    between atoms: _323  and  _326
REMARK  118  A    between atoms: _326  and  _327
REMARK  119  A    between atoms: _330  and  _332
REMARK  120  A    between atoms: _332  and  _333
REMARK  121  A    between atoms: _332  and  _335
REMARK  122  A    between atoms: _337  and  _339
REMARK  123  A    between atoms: _339  and  _340
REMARK  124  A    between atoms: _339  and  _342
REMARK  125  A    between atoms: _342  and  _343
REMARK  126  A    between atoms: _343  and  _344
REMARK  127  A    between atoms: _344  and  _345
REMARK  128  A    between atoms: _354  and  _356
REMARK  129  A    between atoms: _356  and  _357
REMARK  130  A    between atoms: _356  and  _359
REMARK  131  A    between atoms: _359  and  _360
REMARK  132  A    between atoms: _360  and  _361
REMARK  133  A    between atoms: _361  and  _362
REMARK  134  A    between atoms: _362  and  _363
REMARK  135  A    between atoms: _367  and  _369
REMARK  136  A    between atoms: _369  and  _370
REMARK  137  A    between atoms: _369  and  _372
REMARK  138  A    between atoms: _372  and  _373
REMARK  139  A    between atoms: _376  and  _378
REMARK  140  A    between atoms: _378  and  _379
REMARK  141  A    between atoms: _378  and  _381
REMARK  142  A    between atoms: _381  and  _382
REMARK  143  A    between atoms: _385  and  _387
REMARK  144  A    between atoms: _387  and  _388
REMARK  145  A    between atoms: _387  and  _390
REMARK  146  A    between atoms: _393  and  _395
REMARK  147  A    between atoms: _395  and  _396
REMARK  148  A    between atoms: _399  and  _401
REMARK  149  A    between atoms: _401  and  _402
REMARK  150  A    between atoms: _401  and  _404
REMARK  151  A    between atoms: _406  and  _408
REMARK  152  A    between atoms: _408  and  _409
REMARK  153  A    between atoms: _408  and  _411
REMARK  154  A    between atoms: _411  and  _412
REMARK  155  A    between atoms: _412  and  _413
REMARK  156  A    between atoms: _416  and  _418
REMARK  157  A    between atoms: _418  and  _419
REMARK  158  A    between atoms: _421  and  _423
REMARK  159  A    between atoms: _423  and  _424
REMARK  160  A    between atoms: _423  and  _426
REMARK  161  A    between atoms: _430  and  _431
REMARK  162  A    between atoms: _436  and  _438
REMARK  163  A    between atoms: _438  and  _439
REMARK  164  A    between atoms: _438  and  _441
REMARK  165  A    between atoms: _444  and  _446
REMARK  166  A    between atoms: _446  and  _447
REMARK  167  A    between atoms: _446  and  _449
REMARK  168  A    between atoms: _449  and  _450
REMARK  169  A    between atoms: _455  and  _457
REMARK  170  A    between atoms: _457  and  _458
REMARK  171  A    between atoms: _457  and  _460
REMARK  172  A    between atoms: _460  and  _461
REMARK  173  A    between atoms: _467  and  _469
REMARK  174  A    between atoms: _469  and  _470
REMARK  175  A    between atoms: _469  and  _472
REMARK  176  A    between atoms: _472  and  _473
REMARK  177  A    between atoms: _476  and  _478
REMARK  178  A    between atoms: _478  and  _479
REMARK  179  A    between atoms: _482  and  _484
REMARK  180  A    between atoms: _484  and  _485
REMARK  181  A    between atoms: _484  and  _487
REMARK  182  A    between atoms: _487  and  _488
REMARK  183  A    between atoms: _490  and  _492
REMARK  184  A    between atoms: _492  and  _493
REMARK  185  A    between atoms: _492  and  _495
REMARK                            x       y       z     vdW  Elec       q    Type
REMARK                         _______ _______ _______ _____ _____    ______ ____
ROOT
ATOM      1  CA  THR A   2     -35.675 -23.373  26.657  0.00  0.00    +0.176 C 
ENDROOT
BRANCH   1   3
ATOM      2  C   GLU A   1     -36.884 -25.414  27.170  0.00  0.00    +0.238 C 
ATOM      3  N   THR A   2     -36.113 -24.413  27.580  0.00  0.00    -0.295 N 
ATOM      4  H   THR A   2     -35.817 -24.370  28.576  0.00  0.00    +0.150 HD
ATOM      5  O   GLU A   1     -37.310 -25.506  26.020  0.00  0.00    -0.274 OA
BRANCH   2   6
ATOM      6  CA  GLU A   1     -37.259 -26.445  28.216  0.00  0.00    +0.145 C 
BRANCH   6   7
ATOM      7  N   GLU A   1     -38.704 -26.495  28.336  0.00  0.00    -0.238 NA
ATOM      8  H   GLU A   1     -39.295 -26.416  27.484  0.00  0.00    +0.142 HD
ENDBRANCH   6   7
BRANCH   6   9
ATOM      9  CB  GLU A   1     -36.752 -27.831  27.815  0.00  0.00    +0.038 C 
BRANCH   9  10
ATOM     10  CG  GLU A   1     -35.294 -28.081  28.080  0.00  0.00    +0.116 C 
BRANCH  10  11
ATOM     11  CD  GLU A   1     -34.888 -29.507  27.752  0.00  0.00    +0.365 C 
ATOM     12  OE2 GLU A   1     -34.497 -30.241  28.676  0.00  0.00    -0.246 OA
ATOM     13  OE1 GLU A   1     -34.963 -29.895  26.569  0.00  0.00    -0.246 OA
ENDBRANCH  10  11
ENDBRANCH   9  10
ENDBRANCH   6   9
ENDBRANCH   2   6
ENDBRANCH   1   3
BRANCH   1  14
ATOM     14  C   THR A   2     -34.590 -23.982  25.789  0.00  0.00    +0.243 C 
ATOM     15  O   THR A   2     -34.153 -25.108  26.044  0.00  0.00    -0.273 OA
ATOM     16  N   ALA A   3     -34.134 -23.236  24.784  0.00  0.00    -0.297 N 
ATOM     17  H   ALA A   3     -34.522 -22.283  24.632  0.00  0.00    +0.150 HD
BRANCH  16  18
ATOM     18  CA  ALA A   3     -33.093 -23.746  23.893  0.00  0.00    +0.149 C 
ATOM     19  CB  ALA A   3     -32.896 -22.786  22.707  0.00  0.00    +0.031 C 
BRANCH  18  20
ATOM     20  C   ALA A   3     -31.768 -23.953  24.628  0.00  0.00    +0.241 C 
ATOM     21  N   ALA A   4     -31.469 -23.057  25.564  0.00  0.00    -0.298 N 
ATOM     22  H   ALA A   4     -32.136 -22.280  25.744  0.00  0.00    +0.150 HD
ATOM     23  O   ALA A   3     -31.029 -24.897  24.340  0.00  0.00    -0.273 OA
BRANCH  21  24
ATOM     24  CA  ALA A   4     -30.231 -23.124  26.353  0.00  0.00    +0.137 C 
ATOM     25  CB  ALA A   4     -30.045 -21.831  27.147  0.00  0.00    +0.030 C 
BRANCH  24  26
ATOM     26  C   ALA A   4     -30.260 -24.313  27.314  0.00  0.00    +0.227 C 
ATOM     27  O   ALA A   4     -29.238 -24.962  27.557  0.00  0.00    -0.286 OA
ENDBRANCH  24  26
ENDBRANCH  21  24
ENDBRANCH  18  20
ENDBRANCH  16  18
ENDBRANCH   1  14
BRANCH   1  28
ATOM     28  CB  THR A   2     -35.064 -22.150  27.389  0.00  0.00    +0.137 C 
ATOM     29  CG2 THR A   2     -36.033 -21.587  28.414  0.00  0.00    +0.034 C 
BRANCH  28  30
ATOM     30  OG1 THR A   2     -33.855 -22.545  28.051  0.00  0.00    -0.382 OA
ATOM     31  HG1 THR A   2     -33.466 -21.764  28.518  0.00  0.00    +0.210 HD
ENDBRANCH  28  30
ENDBRANCH   1  28
TORSDOF 13
REMARK  Name = ../refined-set-2016/1u1b/1u1b_pocket.pdb
REMARK  185 active torsions:
REMARK  status: ('A' for Active; 'I' for Inactive)
REMARK    1  A    between atoms: _1  and  _3
REMARK    2  A    between atoms: _3  and  _4
REMARK    3  A    between atoms: _3  and  _6
REMARK    4  A    between atoms: _6  and  _7
REMARK    5  A    between atoms: _7  and  _8
REMARK    6  A    between atoms: _11  and  _13
REMARK    7  A    between atoms: _13  and  _14
REMARK    8  A    between atoms: _13  and  _16
REMARK    9  A    between atoms: _16  and  _17
REMARK   10  A    between atoms: _20  and  _22
REMARK   11  A    between atoms: _22  and  _23
REMARK   12  A    between atoms: _26  and  _28
REMARK   13  A    between atoms: _28  and  _29
REMARK   14  A    between atoms: _32  and  _34
REMARK   15  A    between atoms: _34  and  _35
REMARK   16  A    between atoms: _34  and  _37
REMARK   17  A    between atoms: _37  and  _38
REMARK   18  A    between atoms: _38  and  _39
REMARK   19  A    between atoms: _39  and  _40
REMARK   20  A    between atoms: _40  and  _41
REMARK   21  A    between atoms: _45  and  _47
REMARK   22  A    between atoms: _47  and  _48
REMARK   23  A    between atoms: _47  and  _50
REMARK   24  A    between atoms: _50  and  _51
REMARK   25  A    between atoms: _57  and  _59
REMARK   26  A    between atoms: _59  and  _60
REMARK   27  A    between atoms: _59  and  _62
REMARK   28  A    between atoms: _62  and  _63
REMARK   29  A    between atoms: _63  and  _64
REMARK   30  A    between atoms: _64  and  _65
REMARK   31  A    between atoms: _74  and  _76
REMARK   32  A    between atoms: _76  and  _77
REMARK   33  A    between atoms: _76  and  _79
REMARK   34  A    between atoms: _79  and  _80
REMARK   35  A    between atoms: _80  and  _81
REMARK   36  A    between atoms: _86  and  _88
REMARK   37  A    between atoms: _88  and  _89
REMARK   38  A    between atoms: _88  and  _91
REMARK   39  A    between atoms: _91  and  _92
REMARK   40  A    between atoms: _97  and  _99
REMARK   41  A    between atoms: _99  and  _100
REMARK   42  A    between atoms: _99  and  _102
REMARK   43  A    between atoms: _102  and  _103
REMARK   44  A    between atoms: _103  and  _104
REMARK   45  A    between atoms: _106  and  _108
REMARK   46  A    between atoms: _108  and  _109
REMARK   47  A    between atoms: _108  and  _111
REMARK   48  A    between atoms: _111  and  _112
REMARK   49  A    between atoms: _115  and  _117
REMARK   50  A    between atoms: _117  and  _118
REMARK   51  A    between atoms: _117  and  _120
REMARK   52  A    between atoms: _120  and  _121
REMARK   53  A    between atoms: _121  and  _122
REMARK   54  A    between atoms: _122  and  _123
REMARK   55  A    between atoms: _132  and  _134
REMARK   56  A    between atoms: _134  and  _135
REMARK   57  A    between atoms: _134  and  _137
REMARK   58  A    between atoms: _137  and  _138
REMARK   59  A    between atoms: _138  and  _139
REMARK   60  A    between atoms: _139  and  _140
REMARK   61  A    between atoms: _140  and  _141
REMARK   62  A    between atoms: _146  and  _147
REMARK   63  A    between atoms: _152  and  _154
REMARK   64  A    between atoms: _154  and  _155
REMARK   65  A    between atoms: _154  and  _157
REMARK   66  A    between atoms: _160  and  _162
REMARK   67  A    between atoms: _162  and  _163
REMARK   68  A    between atoms: _162  and  _165
REMARK   69  A    between atoms: _165  and  _166
REMARK   70  A    between atoms: _171  and  _173
REMARK   71  A    between atoms: _173  and  _174
REMARK   72  A    between atoms: _173  and  _176
REMARK   73  A    between atoms: _176  and  _177
REMARK   74  A    between atoms: _180  and  _182
REMARK   75  A    between atoms: _182  and  _183
REMARK   76  A    between atoms: _182  and  _185
REMARK   77  A    between atoms: _185  and  _186
REMARK   78  A    between atoms: _192  and  _194
REMARK   79  A    between atoms: _194  and  _195
REMARK   80  A    between atoms: _194  and  _197
REMARK   81  A    between atoms: _200  and  _202
REMARK   82  A    between atoms: _202  and  _203
REMARK   83  A    between atoms: _202  and  _205
REMARK   84  A    between atoms: _208  and  _210
REMARK   85  A    between atoms: _210  and  _211
REMARK   86  A    between atoms: _214  and  _216
REMARK   87  A    between atoms: _223  and  _226
REMARK   88  A    between atoms: _226  and  _227
REMARK   89  A    between atoms: _227  and  _228
REMARK   90  A    between atoms: _228  and  _229
REMARK   91  A    between atoms: _229  and  _230
REMARK   92  A    between atoms: _236  and  _239
REMARK   93  A    between atoms: _239  and  _240
REMARK   94  A    between atoms: _252  and  _255
REMARK   95  A    between atoms: _255  and  _256
REMARK   96  A    between atoms: _256  and  _257
REMARK   97  A    between atoms: _264  and  _267
REMARK   98  A    between atoms: _267  and  _268
REMARK   99  A    between atoms: _273  and  _276
REMARK  100  A    between atoms: _276  and  _277
REMARK  101  A    between atoms: _284  and  _285
REMARK  102  A    between atoms: _289  and  _291
REMARK  103  A    between atoms: _291  and  _292
REMARK  104  A    between atoms: _291  and  _294
REMARK  105  A    between atoms: _294  and  _295
REMARK  106  A    between atoms: _300  and  _301
REMARK  107  A    between atoms: _303  and  _305
REMARK  108  A    between atoms: _305  and  _306
REMARK  109  A    between atoms: _305  and  _308
REMARK  110  A    between atoms: _308  and  _309
REMARK  111  A    between atoms: _312  and  _314
REMARK  112  A    between atoms: _314  and  _315
REMARK  113  A    between atoms: _314  and  _317
REMARK  114  A    between atoms: _317  and  _318
REMARK  115  A    between atoms: _321  and  _323
REMARK  116  A    between atoms: _323  and  _324
REMARK  117  A    between atoms: _323  and  _326
REMARK  118  A    between atoms: _326  and  _327
REMARK  119  A    between atoms: _330  and  _332
REMARK  120  A    between atoms: _332  and  _333
REMARK  121  A    between atoms: _332  and  _335
REMARK  122  A    between atoms: _337  and  _339
REMARK  123  A    between atoms: _339  and  _340
REMARK  124  A    between atoms: _339  and  _342
REMARK  125  A    between atoms: _342  and  _343
REMARK  126  A    between atoms: _343  and  _344
REMARK  127  A    between atoms: _344  and  _345
REMARK  128  A    between atoms: _354  and  _356
REMARK  129  A    between atoms: _356  and  _357
REMARK  130  A    between atoms: _356  and  _359
REMARK  131  A    between atoms: _359  and  _360
REMARK  132  A    between atoms: _360  and  _361
REMARK  133  A    between atoms: _361  and  _362
REMARK  134  A    between atoms: _362  and  _363
REMARK  135  A    between atoms: _367  and  _369
REMARK  136  A    between atoms: _369  and  _370
REMARK  137  A    between atoms: _369  and  _372
REMARK  138  A    between atoms: _372  and  _373
REMARK  139  A    between atoms: _376  and  _378
REMARK  140  A    between atoms: _378  and  _379
REMARK  141  A    between atoms: _378  and  _381
REMARK  142  A    between atoms: _381  and  _382
REMARK  143  A    between atoms: _385  and  _387
REMARK  144  A    between atoms: _387  and  _388
REMARK  145  A    between atoms: _387  and  _390
REMARK  146  A    between atoms: _393  and  _395
REMARK  147  A    between atoms: _395  and  _396
REMARK  148  A    between atoms: _399  and  _401
REMARK  149  A    between atoms: _401  and  _402
REMARK  150  A    between atoms: _401  and  _404
REMARK  151  A    between atoms: _406  and  _408
REMARK  152  A    between atoms: _408  and  _409
REMARK  153  A    between atoms: _408  and  _411
REMARK  154  A    between atoms: _411  and  _412
REMARK  155  A    between atoms: _412  and  _413
REMARK  156  A    between atoms: _416  and  _418
REMARK  157  A    between atoms: _418  and  _419
REMARK  158  A    between atoms: _421  and  _423
REMARK  159  A    between atoms: _423  and  _424
REMARK  160  A    between atoms: _423  and  _426
REMARK  161  A    between atoms: _430  and  _431
REMARK  162  A    between atoms: _436  and  _438
REMARK  163  A    between atoms: _438  and  _439
REMARK  164  A    between atoms: _438  and  _441
REMARK  165  A    between atoms: _444  and  _446
REMARK  166  A    between atoms: _446  and  _447
REMARK  167  A    between atoms: _446  and  _449
REMARK  168  A    between atoms: _449  and  _450
REMARK  169  A    between atoms: _455  and  _457
REMARK  170  A    between atoms: _457  and  _458
REMARK  171  A    between atoms: _457  and  _460
REMARK  172  A    between atoms: _460  and  _461
REMARK  173  A    between atoms: _467  and  _469
REMARK  174  A    between atoms: _469  and  _470
REMARK  175  A    between atoms: _469  and  _472
REMARK  176  A    between atoms: _472  and  _473
REMARK  177  A    between atoms: _476  and  _478
REMARK  178  A    between atoms: _478  and  _479
REMARK  179  A    between atoms: _482  and  _484
REMARK  180  A    between atoms: _484  and  _485
REMARK  181  A    between atoms: _484  and  _487
REMARK  182  A    between atoms: _487  and  _488
REMARK  183  A    between atoms: _490  and  _492
REMARK  184  A    between atoms: _492  and  _493
REMARK  185  A    between atoms: _492  and  _495
REMARK                            x       y       z     vdW  Elec       q    Type
REMARK                         _______ _______ _______ _____ _____    ______ ____
ROOT
ATOM      1  C   LYS A   1     -30.300 -28.597  25.808  0.00  0.00    +0.238 C 
ATOM      2  O   LYS A   1     -29.858 -29.741  25.939  0.00  0.00    -0.274 OA
ATOM      3  N   PHE A   2     -29.528 -27.569  25.456  0.00  0.00    -0.298 N 
ATOM      4  H   PHE A   2     -29.940 -26.618  25.365  0.00  0.00    +0.150 HD
ENDROOT
BRANCH   1   5
ATOM      5  CA  LYS A   1     -31.780 -28.300  26.053  0.00  0.00    +0.145 C 
BRANCH   5   6
ATOM      6  N   LYS A   1     -31.921 -27.078  26.834  0.00  0.00    -0.238 NA
ATOM      7  H   LYS A   1     -32.415 -26.257  26.429  0.00  0.00    +0.142 HD
ENDBRANCH   5   6
BRANCH   5   8
ATOM      8  CB  LYS A   1     -32.530 -28.182  24.711  0.00  0.00    +0.026 C 
BRANCH   8   9
ATOM      9  CG  LYS A   1     -32.584 -29.499  23.925  0.00  0.00    -0.000 C 
BRANCH   9  10
ATOM     10  CD  LYS A   1     -33.733 -29.508  22.919  0.00  0.00    -0.024 C 
BRANCH  10  11
ATOM     11  CE  LYS A   1     -33.316 -29.028  21.536  0.00  0.00    -0.086 C 
BRANCH  11  12
ATOM     12  NZ  LYS A   1     -32.566 -30.093  20.785  0.00  0.00    +0.380 N 
ATOM     13  HZ1 LYS A   1     -31.710 -30.352  21.316  0.00  0.00    -0.089 HD
ATOM     14  HZ2 LYS A   1     -33.173 -30.930  20.674  0.00  0.00    -0.089 HD
ATOM     15  HZ3 LYS A   1     -32.298 -29.731  19.848  0.00  0.00    -0.089 HD
ENDBRANCH  11  12
ENDBRANCH  10  11
ENDBRANCH   9  10
ENDBRANCH   8   9
ENDBRANCH   5   8
ENDBRANCH   1   5
BRANCH   3  16
ATOM     16  CA  PHE A   2     -28.109 -27.774  25.198  0.00  0.00    +0.141 C 
BRANCH  16  17
ATOM     17  C   PHE A   2     -27.446 -28.287  26.461  0.00  0.00    +0.227 C 
ATOM     18  O   PHE A   2     -26.575 -29.153  26.398  0.00  0.00    -0.286 OA
ENDBRANCH  16  17
BRANCH  16  19
ATOM     19  CB  PHE A   2     -27.436 -26.473  24.728  0.00  0.00    +0.054 C 
BRANCH  19  20
ATOM     20  CG  PHE A   2     -25.941 -26.585  24.544  0.00  0.00    -0.020 A 
ATOM     21  CD2 PHE A   2     -25.072 -26.337  25.601  0.00  0.00    -0.004 A 
ATOM     22  CE2 PHE A   2     -23.678 -26.436  25.433  0.00  0.00    -0.000 A 
ATOM     23  CZ  PHE A   2     -23.152 -26.790  24.199  0.00  0.00    -0.000 A 
ATOM     24  CE1 PHE A   2     -24.008 -27.039  23.137  0.00  0.00    -0.000 A 
ATOM     25  CD1 PHE A   2     -25.401 -26.935  23.310  0.00  0.00    -0.004 A 
ENDBRANCH  19  20
ENDBRANCH  16  19
ENDBRANCH   3  16
TORSDOF 11
REMARK  Name = ../refined-set-2016/1u1b/1u1b_pocket.pdb
REMARK  185 active torsions:
REMARK  status: ('A' for Active; 'I' for Inactive)
REMARK    1  A    between atoms: _1  and  _3
REMARK    2  A    between atoms: _3  and  _4
REMARK    3  A    between atoms: _3  and  _6
REMARK    4  A    between atoms: _6  and  _7
REMARK    5  A    between atoms: _7  and  _8
REMARK    6  A    between atoms: _11  and  _13
REMARK    7  A    between atoms: _13  and  _14
REMARK    8  A    between atoms: _13  and  _16
REMARK    9  A    between atoms: _16  and  _17
REMARK   10  A    between atoms: _20  and  _22
REMARK   11  A    between atoms: _22  and  _23
REMARK   12  A    between atoms: _26  and  _28
REMARK   13  A    between atoms: _28  and  _29
REMARK   14  A    between atoms: _32  and  _34
REMARK   15  A    between atoms: _34  and  _35
REMARK   16  A    between atoms: _34  and  _37
REMARK   17  A    between atoms: _37  and  _38
REMARK   18  A    between atoms: _38  and  _39
REMARK   19  A    between atoms: _39  and  _40
REMARK   20  A    between atoms: _40  and  _41
REMARK   21  A    between atoms: _45  and  _47
REMARK   22  A    between atoms: _47  and  _48
REMARK   23  A    between atoms: _47  and  _50
REMARK   24  A    between atoms: _50  and  _51
REMARK   25  A    between atoms: _57  and  _59
REMARK   26  A    between atoms: _59  and  _60
REMARK   27  A    between atoms: _59  and  _62
REMARK   28  A    between atoms: _62  and  _63
REMARK   29  A    between atoms: _63  and  _64
REMARK   30  A    between atoms: _64  and  _65
REMARK   31  A    between atoms: _74  and  _76
REMARK   32  A    between atoms: _76  and  _77
REMARK   33  A    between atoms: _76  and  _79
REMARK   34  A    between atoms: _79  and  _80
REMARK   35  A    between atoms: _80  and  _81
REMARK   36  A    between atoms: _86  and  _88
REMARK   37  A    between atoms: _88  and  _89
REMARK   38  A    between atoms: _88  and  _91
REMARK   39  A    between atoms: _91  and  _92
REMARK   40  A    between atoms: _97  and  _99
REMARK   41  A    between atoms: _99  and  _100
REMARK   42  A    between atoms: _99  and  _102
REMARK   43  A    between atoms: _102  and  _103
REMARK   44  A    between atoms: _103  and  _104
REMARK   45  A    between atoms: _106  and  _108
REMARK   46  A    between atoms: _108  and  _109
REMARK   47  A    between atoms: _108  and  _111
REMARK   48  A    between atoms: _111  and  _112
REMARK   49  A    between atoms: _115  and  _117
REMARK   50  A    between atoms: _117  and  _118
REMARK   51  A    between atoms: _117  and  _120
REMARK   52  A    between atoms: _120  and  _121
REMARK   53  A    between atoms: _121  and  _122
REMARK   54  A    between atoms: _122  and  _123
REMARK   55  A    between atoms: _132  and  _134
REMARK   56  A    between atoms: _134  and  _135
REMARK   57  A    between atoms: _134  and  _137
REMARK   58  A    between atoms: _137  and  _138
REMARK   59  A    between atoms: _138  and  _139
REMARK   60  A    between atoms: _139  and  _140
REMARK   61  A    between atoms: _140  and  _141
REMARK   62  A    between atoms: _146  and  _147
REMARK   63  A    between atoms: _152  and  _154
REMARK   64  A    between atoms: _154  and  _155
REMARK   65  A    between atoms: _154  and  _157
REMARK   66  A    between atoms: _160  and  _162
REMARK   67  A    between atoms: _162  and  _163
REMARK   68  A    between atoms: _162  and  _165
REMARK   69  A    between atoms: _165  and  _166
REMARK   70  A    between atoms: _171  and  _173
REMARK   71  A    between atoms: _173  and  _174
REMARK   72  A    between atoms: _173  and  _176
REMARK   73  A    between atoms: _176  and  _177
REMARK   74  A    between atoms: _180  and  _182
REMARK   75  A    between atoms: _182  and  _183
REMARK   76  A    between atoms: _182  and  _185
REMARK   77  A    between atoms: _185  and  _186
REMARK   78  A    between atoms: _192  and  _194
REMARK   79  A    between atoms: _194  and  _195
REMARK   80  A    between atoms: _194  and  _197
REMARK   81  A    between atoms: _200  and  _202
REMARK   82  A    between atoms: _202  and  _203
REMARK   83  A    between atoms: _202  and  _205
REMARK   84  A    between atoms: _208  and  _210
REMARK   85  A    between atoms: _210  and  _211
REMARK   86  A    between atoms: _214  and  _216
REMARK   87  A    between atoms: _223  and  _226
REMARK   88  A    between atoms: _226  and  _227
REMARK   89  A    between atoms: _227  and  _228
REMARK   90  A    between atoms: _228  and  _229
REMARK   91  A    between atoms: _229  and  _230
REMARK   92  A    between atoms: _236  and  _239
REMARK   93  A    between atoms: _239  and  _240
REMARK   94  A    between atoms: _252  and  _255
REMARK   95  A    between atoms: _255  and  _256
REMARK   96  A    between atoms: _256  and  _257
REMARK   97  A    between atoms: _264  and  _267
REMARK   98  A    between atoms: _267  and  _268
REMARK   99  A    between atoms: _273  and  _276
REMARK  100  A    between atoms: _276  and  _277
REMARK  101  A    between atoms: _284  and  _285
REMARK  102  A    between atoms: _289  and  _291
REMARK  103  A    between atoms: _291  and  _292
REMARK  104  A    between atoms: _291  and  _294
REMARK  105  A    between atoms: _294  and  _295
REMARK  106  A    between atoms: _300  and  _301
REMARK  107  A    between atoms: _303  and  _305
REMARK  108  A    between atoms: _305  and  _306
REMARK  109  A    between atoms: _305  and  _308
REMARK  110  A    between atoms: _308  and  _309
REMARK  111  A    between atoms: _312  and  _314
REMARK  112  A    between atoms: _314  and  _315
REMARK  113  A    between atoms: _314  and  _317
REMARK  114  A    between atoms: _317  and  _318
REMARK  115  A    between atoms: _321  and  _323
REMARK  116  A    between atoms: _323  and  _324
REMARK  117  A    between atoms: _323  and  _326
REMARK  118  A    between atoms: _326  and  _327
REMARK  119  A    between atoms: _330  and  _332
REMARK  120  A    between atoms: _332  and  _333
REMARK  121  A    between atoms: _332  and  _335
REMARK  122  A    between atoms: _337  and  _339
REMARK  123  A    between atoms: _339  and  _340
REMARK  124  A    between atoms: _339  and  _342
REMARK  125  A    between atoms: _342  and  _343
REMARK  126  A    between atoms: _343  and  _344
REMARK  127  A    between atoms: _344  and  _345
REMARK  128  A    between atoms: _354  and  _356
REMARK  129  A    between atoms: _356  and  _357
REMARK  130  A    between atoms: _356  and  _359
REMARK  131  A    between atoms: _359  and  _360
REMARK  132  A    between atoms: _360  and  _361
REMARK  133  A    between atoms: _361  and  _362
REMARK  134  A    between atoms: _362  and  _363
REMARK  135  A    between atoms: _367  and  _369
REMARK  136  A    between atoms: _369  and  _370
REMARK  137  A    between atoms: _369  and  _372
REMARK  138  A    between atoms: _372  and  _373
REMARK  139  A    between atoms: _376  and  _378
REMARK  140  A    between atoms: _378  and  _379
REMARK  141  A    between atoms: _378  and  _381
REMARK  142  A    between atoms: _381  and  _382
REMARK  143  A    between atoms: _385  and  _387
REMARK  144  A    between atoms: _387  and  _388
REMARK  145  A    between atoms: _387  and  _390
REMARK  146  A    between atoms: _393  and  _395
REMARK  147  A    between atoms: _395  and  _396
REMARK  148  A    between atoms: _399  and  _401
REMARK  149  A    between atoms: _401  and  _402
REMARK  150  A    between atoms: _401  and  _404
REMARK  151  A    between atoms: _406  and  _408
REMARK  152  A    between atoms: _408  and  _409
REMARK  153  A    between atoms: _408  and  _411
REMARK  154  A    between atoms: _411  and  _412
REMARK  155  A    between atoms: _412  and  _413
REMARK  156  A    between atoms: _416  and  _418
REMARK  157  A    between atoms: _418  and  _419
REMARK  158  A    between atoms: _421  and  _423
REMARK  159  A    between atoms: _423  and  _424
REMARK  160  A    between atoms: _423  and  _426
REMARK  161  A    between atoms: _430  and  _431
REMARK  162  A    between atoms: _436  and  _438
REMARK  163  A    between atoms: _438  and  _439
REMARK  164  A    between atoms: _438  and  _441
REMARK  165  A    between atoms: _444  and  _446
REMARK  166  A    between atoms: _446  and  _447
REMARK  167  A    between atoms: _446  and  _449
REMARK  168  A    between atoms: _449  and  _450
REMARK  169  A    between atoms: _455  and  _457
REMARK  170  A    between atoms: _457  and  _458
REMARK  171  A    between atoms: _457  and  _460
REMARK  172  A    between atoms: _460  and  _461
REMARK  173  A    between atoms: _467  and  _469
REMARK  174  A    between atoms: _469  and  _470
REMARK  175  A    between atoms: _469  and  _472
REMARK  176  A    between atoms: _472  and  _473
REMARK  177  A    between atoms: _476  and  _478
REMARK  178  A    between atoms: _478  and  _479
REMARK  179  A    between atoms: _482  and  _484
REMARK  180  A    between atoms: _484  and  _485
REMARK  181  A    between atoms: _484  and  _487
REMARK  182  A    between atoms: _487  and  _488
REMARK  183  A    between atoms: _490  and  _492
REMARK  184  A    between atoms: _492  and  _493
REMARK  185  A    between atoms: _492  and  _495
REMARK                            x       y       z     vdW  Elec       q    Type
REMARK                         _______ _______ _______ _____ _____    ______ ____
ROOT
ATOM      1  CA  GLN A   2     -27.880 -32.798  25.812  0.00  0.00    +0.149 C 
ENDROOT
BRANCH   1   4
ATOM      2  C   ARG A   1     -28.593 -32.412  28.094  0.00  0.00    +0.238 C 
ATOM      3  O   ARG A   1     -28.188 -33.523  28.439  0.00  0.00    -0.274 OA
ATOM      4  N   GLN A   2     -28.472 -31.962  26.848  0.00  0.00    -0.297 N 
ATOM      5  H   GLN A   2     -28.803 -31.005  26.611  0.00  0.00    +0.150 HD
BRANCH   2   6
ATOM      6  CA  ARG A   1     -29.247 -31.477  29.111  0.00  0.00    +0.145 C 
BRANCH   6   7
ATOM      7  N   ARG A   1     -28.845 -30.091  28.918  0.00  0.00    -0.238 NA
ATOM      8  H   ARG A   1     -29.554 -29.386  28.632  0.00  0.00    +0.142 HD
ENDBRANCH   6   7
BRANCH   6   9
ATOM      9  CB  ARG A   1     -30.769 -31.612  29.021  0.00  0.00    +0.030 C 
BRANCH   9  10
ATOM     10  CG  ARG A   1     -31.270 -33.076  29.030  0.00  0.00    +0.045 C 
BRANCH  10  11
ATOM     11  CD  ARG A   1     -32.806 -33.155  29.077  0.00  0.00    +0.174 C 
BRANCH  11  12
ATOM     12  NE  ARG A   1     -33.459 -32.538  27.918  0.00  0.00    -0.265 N 
ATOM     13  HE  ARG A   1     -33.825 -31.571  28.032  0.00  0.00    +0.259 HD
ATOM     14  CZ  ARG A   1     -33.619 -33.119  26.732  0.00  0.00    +0.342 C 
ATOM     15  NH2 ARG A   1     -33.178 -34.357  26.525  0.00  0.00    -0.292 N 
ATOM     16 HH21 ARG A   1     -32.705 -34.876  27.292  0.00  0.00    +0.255 HD
ATOM     17 HH22 ARG A   1     -33.306 -34.806  25.596  0.00  0.00    +0.255 HD
ATOM     18  NH1 ARG A   1     -34.211 -32.453  25.745  0.00  0.00    -0.292 N 
ATOM     19 HH11 ARG A   1     -34.547 -31.481  25.902  0.00  0.00    +0.255 HD
ATOM     20 HH12 ARG A   1     -34.338 -32.904  24.816  0.00  0.00    +0.255 HD
ENDBRANCH  11  12
ENDBRANCH  10  11
ENDBRANCH   9  10
ENDBRANCH   6   9
ENDBRANCH   2   6
ENDBRANCH   1   4
BRANCH   1  21
ATOM     21  C   GLN A   2     -26.358 -32.853  25.743  0.00  0.00    +0.241 C 
ATOM     22  N   HIS A   3     -25.660 -31.819  26.213  0.00  0.00    -0.298 N 
ATOM     23  H   HIS A   3     -26.149 -31.033  26.687  0.00  0.00    +0.150 HD
ATOM     24  O   GLN A   2     -25.817 -33.852  25.283  0.00  0.00    -0.273 OA
BRANCH  22  25
ATOM     25  CA  HIS A   3     -24.198 -31.792  26.060  0.00  0.00    +0.143 C 
BRANCH  25  26
ATOM     26  C   HIS A   3     -23.308 -31.477  27.250  0.00  0.00    +0.227 C 
ATOM     27  O   HIS A   3     -22.078 -31.609  27.155  0.00  0.00    -0.286 OA
ENDBRANCH  25  26
BRANCH  25  28
ATOM     28  CB  HIS A   3     -23.842 -30.787  24.967  0.00  0.00    +0.075 C 
BRANCH  28  29
ATOM     29  CG  HIS A   3     -24.528 -31.049  23.668  0.00  0.00    +0.082 A 
ATOM     30  CD2 HIS A   3     -25.558 -30.417  23.060  0.00  0.00    +0.115 A 
ATOM     31  NE2 HIS A   3     -25.813 -31.092  21.895  0.00  0.00    -0.221 NA
ATOM     32  CE1 HIS A   3     -24.970 -32.103  21.789  0.00  0.00    +0.199 A 
ATOM     33  ND1 HIS A   3     -24.182 -32.099  22.847  0.00  0.00    -0.227 NA
ENDBRANCH  28  29
ENDBRANCH  25  28
ENDBRANCH  22  25
ENDBRANCH   1  21
BRANCH   1  34
ATOM     34  CB  GLN A   2     -28.382 -32.386  24.419  0.00  0.00    +0.039 C 
BRANCH  34  35
ATOM     35  CG  GLN A   2     -29.892 -32.478  24.200  0.00  0.00    +0.087 C 
BRANCH  35  36
ATOM     36  CD  GLN A   2     -30.265 -32.296  22.722  0.00  0.00    +0.219 C 
ATOM     37  NE2 GLN A   2     -30.671 -31.085  22.359  0.00  0.00    -0.329 N 
ATOM     38 HE21 GLN A   2     -30.741 -30.326  23.067  0.00  0.00    +0.145 HD
ATOM     39 HE22 GLN A   2     -30.919 -30.895  21.367  0.00  0.00    +0.145 HD
ATOM     40  OE1 GLN A   2     -30.165 -33.229  21.920  0.00  0.00    -0.275 OA
ENDBRANCH  35  36
ENDBRANCH  34  35
ENDBRANCH   1  34
TORSDOF 15
REMARK  Name = ../refined-set-2016/1u1b/1u1b_pocket.pdb
REMARK  185 active torsions:
REMARK  status: ('A' for Active; 'I' for Inactive)
REMARK    1  A    between atoms: _1  and  _3
REMARK    2  A    between atoms: _3  and  _4
REMARK    3  A    between atoms: _3  and  _6
REMARK    4  A    between atoms: _6  and  _7
REMARK    5  A    between atoms: _7  and  _8
REMARK    6  A    between atoms: _11  and  _13
REMARK    7  A    between atoms: _13  and  _14
REMARK    8  A    between atoms: _13  and  _16
REMARK    9  A    between atoms: _16  and  _17
REMARK   10  A    between atoms: _20  and  _22
REMARK   11  A    between atoms: _22  and  _23
REMARK   12  A    between atoms: _26  and  _28
REMARK   13  A    between atoms: _28  and  _29
REMARK   14  A    between atoms: _32  and  _34
REMARK   15  A    between atoms: _34  and  _35
REMARK   16  A    between atoms: _34  and  _37
REMARK   17  A    between atoms: _37  and  _38
REMARK   18  A    between atoms: _38  and  _39
REMARK   19  A    between atoms: _39  and  _40
REMARK   20  A    between atoms: _40  and  _41
REMARK   21  A    between atoms: _45  and  _47
REMARK   22  A    between atoms: _47  and  _48
REMARK   23  A    between atoms: _47  and  _50
REMARK   24  A    between atoms: _50  and  _51
REMARK   25  A    between atoms: _57  and  _59
REMARK   26  A    between atoms: _59  and  _60
REMARK   27  A    between atoms: _59  and  _62
REMARK   28  A    between atoms: _62  and  _63
REMARK   29  A    between atoms: _63  and  _64
REMARK   30  A    between atoms: _64  and  _65
REMARK   31  A    between atoms: _74  and  _76
REMARK   32  A    between atoms: _76  and  _77
REMARK   33  A    between atoms: _76  and  _79
REMARK   34  A    between atoms: _79  and  _80
REMARK   35  A    between atoms: _80  and  _81
REMARK   36  A    between atoms: _86  and  _88
REMARK   37  A    between atoms: _88  and  _89
REMARK   38  A    between atoms: _88  and  _91
REMARK   39  A    between atoms: _91  and  _92
REMARK   40  A    between atoms: _97  and  _99
REMARK   41  A    between atoms: _99  and  _100
REMARK   42  A    between atoms: _99  and  _102
REMARK   43  A    between atoms: _102  and  _103
REMARK   44  A    between atoms: _103  and  _104
REMARK   45  A    between atoms: _106  and  _108
REMARK   46  A    between atoms: _108  and  _109
REMARK   47  A    between atoms: _108  and  _111
REMARK   48  A    between atoms: _111  and  _112
REMARK   49  A    between atoms: _115  and  _117
REMARK   50  A    between atoms: _117  and  _118
REMARK   51  A    between atoms: _117  and  _120
REMARK   52  A    between atoms: _120  and  _121
REMARK   53  A    between atoms: _121  and  _122
REMARK   54  A    between atoms: _122  and  _123
REMARK   55  A    between atoms: _132  and  _134
REMARK   56  A    between atoms: _134  and  _135
REMARK   57  A    between atoms: _134  and  _137
REMARK   58  A    between atoms: _137  and  _138
REMARK   59  A    between atoms: _138  and  _139
REMARK   60  A    between atoms: _139  and  _140
REMARK   61  A    between atoms: _140  and  _141
REMARK   62  A    between atoms: _146  and  _147
REMARK   63  A    between atoms: _152  and  _154
REMARK   64  A    between atoms: _154  and  _155
REMARK   65  A    between atoms: _154  and  _157
REMARK   66  A    between atoms: _160  and  _162
REMARK   67  A    between atoms: _162  and  _163
REMARK   68  A    between atoms: _162  and  _165
REMARK   69  A    between atoms: _165  and  _166
REMARK   70  A    between atoms: _171  and  _173
REMARK   71  A    between atoms: _173  and  _174
REMARK   72  A    between atoms: _173  and  _176
REMARK   73  A    between atoms: _176  and  _177
REMARK   74  A    between atoms: _180  and  _182
REMARK   75  A    between atoms: _182  and  _183
REMARK   76  A    between atoms: _182  and  _185
REMARK   77  A    between atoms: _185  and  _186
REMARK   78  A    between atoms: _192  and  _194
REMARK   79  A    between atoms: _194  and  _195
REMARK   80  A    between atoms: _194  and  _197
REMARK   81  A    between atoms: _200  and  _202
REMARK   82  A    between atoms: _202  and  _203
REMARK   83  A    between atoms: _202  and  _205
REMARK   84  A    between atoms: _208  and  _210
REMARK   85  A    between atoms: _210  and  _211
REMARK   86  A    between atoms: _214  and  _216
REMARK   87  A    between atoms: _223  and  _226
REMARK   88  A    between atoms: _226  and  _227
REMARK   89  A    between atoms: _227  and  _228
REMARK   90  A    between atoms: _228  and  _229
REMARK   91  A    between atoms: _229  and  _230
REMARK   92  A    between atoms: _236  and  _239
REMARK   93  A    between atoms: _239  and  _240
REMARK   94  A    between atoms: _252  and  _255
REMARK   95  A    between atoms: _255  and  _256
REMARK   96  A    between atoms: _256  and  _257
REMARK   97  A    between atoms: _264  and  _267
REMARK   98  A    between atoms: _267  and  _268
REMARK   99  A    between atoms: _273  and  _276
REMARK  100  A    between atoms: _276  and  _277
REMARK  101  A    between atoms: _284  and  _285
REMARK  102  A    between atoms: _289  and  _291
REMARK  103  A    between atoms: _291  and  _292
REMARK  104  A    between atoms: _291  and  _294
REMARK  105  A    between atoms: _294  and  _295
REMARK  106  A    between atoms: _300  and  _301
REMARK  107  A    between atoms: _303  and  _305
REMARK  108  A    between atoms: _305  and  _306
REMARK  109  A    between atoms: _305  and  _308
REMARK  110  A    between atoms: _308  and  _309
REMARK  111  A    between atoms: _312  and  _314
REMARK  112  A    between atoms: _314  and  _315
REMARK  113  A    between atoms: _314  and  _317
REMARK  114  A    between atoms: _317  and  _318
REMARK  115  A    between atoms: _321  and  _323
REMARK  116  A    between atoms: _323  and  _324
REMARK  117  A    between atoms: _323  and  _326
REMARK  118  A    between atoms: _326  and  _327
REMARK  119  A    between atoms: _330  and  _332
REMARK  120  A    between atoms: _332  and  _333
REMARK  121  A    between atoms: _332  and  _335
REMARK  122  A    between atoms: _337  and  _339
REMARK  123  A    between atoms: _339  and  _340
REMARK  124  A    between atoms: _339  and  _342
REMARK  125  A    between atoms: _342  and  _343
REMARK  126  A    between atoms: _343  and  _344
REMARK  127  A    between atoms: _344  and  _345
REMARK  128  A    between atoms: _354  and  _356
REMARK  129  A    between atoms: _356  and  _357
REMARK  130  A    between atoms: _356  and  _359
REMARK  131  A    between atoms: _359  and  _360
REMARK  132  A    between atoms: _360  and  _361
REMARK  133  A    between atoms: _361  and  _362
REMARK  134  A    between atoms: _362  and  _363
REMARK  135  A    between atoms: _367  and  _369
REMARK  136  A    between atoms: _369  and  _370
REMARK  137  A    between atoms: _369  and  _372
REMARK  138  A    between atoms: _372  and  _373
REMARK  139  A    between atoms: _376  and  _378
REMARK  140  A    between atoms: _378  and  _379
REMARK  141  A    between atoms: _378  and  _381
REMARK  142  A    between atoms: _381  and  _382
REMARK  143  A    between atoms: _385  and  _387
REMARK  144  A    between atoms: _387  and  _388
REMARK  145  A    between atoms: _387  and  _390
REMARK  146  A    between atoms: _393  and  _395
REMARK  147  A    between atoms: _395  and  _396
REMARK  148  A    between atoms: _399  and  _401
REMARK  149  A    between atoms: _401  and  _402
REMARK  150  A    between atoms: _401  and  _404
REMARK  151  A    between atoms: _406  and  _408
REMARK  152  A    between atoms: _408  and  _409
REMARK  153  A    between atoms: _408  and  _411
REMARK  154  A    between atoms: _411  and  _412
REMARK  155  A    between atoms: _412  and  _413
REMARK  156  A    between atoms: _416  and  _418
REMARK  157  A    between atoms: _418  and  _419
REMARK  158  A    between atoms: _421  and  _423
REMARK  159  A    between atoms: _423  and  _424
REMARK  160  A    between atoms: _423  and  _426
REMARK  161  A    between atoms: _430  and  _431
REMARK  162  A    between atoms: _436  and  _438
REMARK  163  A    between atoms: _438  and  _439
REMARK  164  A    between atoms: _438  and  _441
REMARK  165  A    between atoms: _444  and  _446
REMARK  166  A    between atoms: _446  and  _447
REMARK  167  A    between atoms: _446  and  _449
REMARK  168  A    between atoms: _449  and  _450
REMARK  169  A    between atoms: _455  and  _457
REMARK  170  A    between atoms: _457  and  _458
REMARK  171  A    between atoms: _457  and  _460
REMARK  172  A    between atoms: _460  and  _461
REMARK  173  A    between atoms: _467  and  _469
REMARK  174  A    between atoms: _469  and  _470
REMARK  175  A    between atoms: _469  and  _472
REMARK  176  A    between atoms: _472  and  _473
REMARK  177  A    between atoms: _476  and  _478
REMARK  178  A    between atoms: _478  and  _479
REMARK  179  A    between atoms: _482  and  _484
REMARK  180  A    between atoms: _484  and  _485
REMARK  181  A    between atoms: _484  and  _487
REMARK  182  A    between atoms: _487  and  _488
REMARK  183  A    between atoms: _490  and  _492
REMARK  184  A    between atoms: _492  and  _493
REMARK  185  A    between atoms: _492  and  _495
REMARK                            x       y       z     vdW  Elec       q    Type
REMARK                         _______ _______ _______ _____ _____    ______ ____
ROOT
ATOM      1  CA  MET A   1     -27.452 -41.279  26.396  0.00  0.00    +0.134 C 
ENDROOT
BRANCH   1   2
ATOM      2  N   MET A   1     -26.506 -41.464  27.494  0.00  0.00    -0.239 NA
ATOM      3  H   MET A   1     -25.711 -42.128  27.395  0.00  0.00    +0.142 HD
ENDBRANCH   1   2
BRANCH   1   4
ATOM      4  C   MET A   1     -28.859 -41.618  26.869  0.00  0.00    +0.224 C 
ATOM      5  O   MET A   1     -29.844 -41.014  26.422  0.00  0.00    -0.287 OA
ENDBRANCH   1   4
BRANCH   1   6
ATOM      6  CB  MET A   1     -27.078 -42.149  25.187  0.00  0.00    +0.037 C 
BRANCH   6   7
ATOM      7  CG  MET A   1     -25.787 -41.729  24.481  0.00  0.00    +0.059 C 
BRANCH   7   8
ATOM      8  SD  MET A   1     -25.813 -39.990  23.897  0.00  0.00    -0.139 S 
ATOM      9  CE  MET A   1     -26.844 -40.142  22.407  0.00  0.00    +0.069 C 
ENDBRANCH   7   8
ENDBRANCH   6   7
ENDBRANCH   1   6
TORSDOF 5
REMARK  Name = ../refined-set-2016/1u1b/1u1b_pocket.pdb
REMARK  185 active torsions:
REMARK  status: ('A' for Active; 'I' for Inactive)
REMARK    1  A    between atoms: _1  and  _3
REMARK    2  A    between atoms: _3  and  _4
REMARK    3  A    between atoms: _3  and  _6
REMARK    4  A    between atoms: _6  and  _7
REMARK    5  A    between atoms: _7  and  _8
REMARK    6  A    between atoms: _11  and  _13
REMARK    7  A    between atoms: _13  and  _14
REMARK    8  A    between atoms: _13  and  _16
REMARK    9  A    between atoms: _16  and  _17
REMARK   10  A    between atoms: _20  and  _22
REMARK   11  A    between atoms: _22  and  _23
REMARK   12  A    between atoms: _26  and  _28
REMARK   13  A    between atoms: _28  and  _29
REMARK   14  A    between atoms: _32  and  _34
REMARK   15  A    between atoms: _34  and  _35
REMARK   16  A    between atoms: _34  and  _37
REMARK   17  A    between atoms: _37  and  _38
REMARK   18  A    between atoms: _38  and  _39
REMARK   19  A    between atoms: _39  and  _40
REMARK   20  A    between atoms: _40  and  _41
REMARK   21  A    between atoms: _45  and  _47
REMARK   22  A    between atoms: _47  and  _48
REMARK   23  A    between atoms: _47  and  _50
REMARK   24  A    between atoms: _50  and  _51
REMARK   25  A    between atoms: _57  and  _59
REMARK   26  A    between atoms: _59  and  _60
REMARK   27  A    between atoms: _59  and  _62
REMARK   28  A    between atoms: _62  and  _63
REMARK   29  A    between atoms: _63  and  _64
REMARK   30  A    between atoms: _64  and  _65
REMARK   31  A    between atoms: _74  and  _76
REMARK   32  A    between atoms: _76  and  _77
REMARK   33  A    between atoms: _76  and  _79
REMARK   34  A    between atoms: _79  and  _80
REMARK   35  A    between atoms: _80  and  _81
REMARK   36  A    between atoms: _86  and  _88
REMARK   37  A    between atoms: _88  and  _89
REMARK   38  A    between atoms: _88  and  _91
REMARK   39  A    between atoms: _91  and  _92
REMARK   40  A    between atoms: _97  and  _99
REMARK   41  A    between atoms: _99  and  _100
REMARK   42  A    between atoms: _99  and  _102
REMARK   43  A    between atoms: _102  and  _103
REMARK   44  A    between atoms: _103  and  _104
REMARK   45  A    between atoms: _106  and  _108
REMARK   46  A    between atoms: _108  and  _109
REMARK   47  A    between atoms: _108  and  _111
REMARK   48  A    between atoms: _111  and  _112
REMARK   49  A    between atoms: _115  and  _117
REMARK   50  A    between atoms: _117  and  _118
REMARK   51  A    between atoms: _117  and  _120
REMARK   52  A    between atoms: _120  and  _121
REMARK   53  A    between atoms: _121  and  _122
REMARK   54  A    between atoms: _122  and  _123
REMARK   55  A    between atoms: _132  and  _134
REMARK   56  A    between atoms: _134  and  _135
REMARK   57  A    between atoms: _134  and  _137
REMARK   58  A    between atoms: _137  and  _138
REMARK   59  A    between atoms: _138  and  _139
REMARK   60  A    between atoms: _139  and  _140
REMARK   61  A    between atoms: _140  and  _141
REMARK   62  A    between atoms: _146  and  _147
REMARK   63  A    between atoms: _152  and  _154
REMARK   64  A    between atoms: _154  and  _155
REMARK   65  A    between atoms: _154  and  _157
REMARK   66  A    between atoms: _160  and  _162
REMARK   67  A    between atoms: _162  and  _163
REMARK   68  A    between atoms: _162  and  _165
REMARK   69  A    between atoms: _165  and  _166
REMARK   70  A    between atoms: _171  and  _173
REMARK   71  A    between atoms: _173  and  _174
REMARK   72  A    between atoms: _173  and  _176
REMARK   73  A    between atoms: _176  and  _177
REMARK   74  A    between atoms: _180  and  _182
REMARK   75  A    between atoms: _182  and  _183
REMARK   76  A    between atoms: _182  and  _185
REMARK   77  A    between atoms: _185  and  _186
REMARK   78  A    between atoms: _192  and  _194
REMARK   79  A    between atoms: _194  and  _195
REMARK   80  A    between atoms: _194  and  _197
REMARK   81  A    between atoms: _200  and  _202
REMARK   82  A    between atoms: _202  and  _203
REMARK   83  A    between atoms: _202  and  _205
REMARK   84  A    between atoms: _208  and  _210
REMARK   85  A    between atoms: _210  and  _211
REMARK   86  A    between atoms: _214  and  _216
REMARK   87  A    between atoms: _223  and  _226
REMARK   88  A    between atoms: _226  and  _227
REMARK   89  A    between atoms: _227  and  _228
REMARK   90  A    between atoms: _228  and  _229
REMARK   91  A    between atoms: _229  and  _230
REMARK   92  A    between atoms: _236  and  _239
REMARK   93  A    between atoms: _239  and  _240
REMARK   94  A    between atoms: _252  and  _255
REMARK   95  A    between atoms: _255  and  _256
REMARK   96  A    between atoms: _256  and  _257
REMARK   97  A    between atoms: _264  and  _267
REMARK   98  A    between atoms: _267  and  _268
REMARK   99  A    between atoms: _273  and  _276
REMARK  100  A    between atoms: _276  and  _277
REMARK  101  A    between atoms: _284  and  _285
REMARK  102  A    between atoms: _289  and  _291
REMARK  103  A    between atoms: _291  and  _292
REMARK  104  A    between atoms: _291  and  _294
REMARK  105  A    between atoms: _294  and  _295
REMARK  106  A    between atoms: _300  and  _301
REMARK  107  A    between atoms: _303  and  _305
REMARK  108  A    between atoms: _305  and  _306
REMARK  109  A    between atoms: _305  and  _308
REMARK  110  A    between atoms: _308  and  _309
REMARK  111  A    between atoms: _312  and  _314
REMARK  112  A    between atoms: _314  and  _315
REMARK  113  A    between atoms: _314  and  _317
REMARK  114  A    between atoms: _317  and  _318
REMARK  115  A    between atoms: _321  and  _323
REMARK  116  A    between atoms: _323  and  _324
REMARK  117  A    between atoms: _323  and  _326
REMARK  118  A    between atoms: _326  and  _327
REMARK  119  A    between atoms: _330  and  _332
REMARK  120  A    between atoms: _332  and  _333
REMARK  121  A    between atoms: _332  and  _335
REMARK  122  A    between atoms: _337  and  _339
REMARK  123  A    between atoms: _339  and  _340
REMARK  124  A    between atoms: _339  and  _342
REMARK  125  A    between atoms: _342  and  _343
REMARK  126  A    between atoms: _343  and  _344
REMARK  127  A    between atoms: _344  and  _345
REMARK  128  A    between atoms: _354  and  _356
REMARK  129  A    between atoms: _356  and  _357
REMARK  130  A    between atoms: _356  and  _359
REMARK  131  A    between atoms: _359  and  _360
REMARK  132  A    between atoms: _360  and  _361
REMARK  133  A    between atoms: _361  and  _362
REMARK  134  A    between atoms: _362  and  _363
REMARK  135  A    between atoms: _367  and  _369
REMARK  136  A    between atoms: _369  and  _370
REMARK  137  A    between atoms: _369  and  _372
REMARK  138  A    between atoms: _372  and  _373
REMARK  139  A    between atoms: _376  and  _378
REMARK  140  A    between atoms: _378  and  _379
REMARK  141  A    between atoms: _378  and  _381
REMARK  142  A    between atoms: _381  and  _382
REMARK  143  A    between atoms: _385  and  _387
REMARK  144  A    between atoms: _387  and  _388
REMARK  145  A    between atoms: _387  and  _390
REMARK  146  A    between atoms: _393  and  _395
REMARK  147  A    between atoms: _395  and  _396
REMARK  148  A    between atoms: _399  and  _401
REMARK  149  A    between atoms: _401  and  _402
REMARK  150  A    between atoms: _401  and  _404
REMARK  151  A    between atoms: _406  and  _408
REMARK  152  A    between atoms: _408  and  _409
REMARK  153  A    between atoms: _408  and  _411
REMARK  154  A    between atoms: _411  and  _412
REMARK  155  A    between atoms: _412  and  _413
REMARK  156  A    between atoms: _416  and  _418
REMARK  157  A    between atoms: _418  and  _419
REMARK  158  A    between atoms: _421  and  _423
REMARK  159  A    between atoms: _423  and  _424
REMARK  160  A    between atoms: _423  and  _426
REMARK  161  A    between atoms: _430  and  _431
REMARK  162  A    between atoms: _436  and  _438
REMARK  163  A    between atoms: _438  and  _439
REMARK  164  A    between atoms: _438  and  _441
REMARK  165  A    between atoms: _444  and  _446
REMARK  166  A    between atoms: _446  and  _447
REMARK  167  A    between atoms: _446  and  _449
REMARK  168  A    between atoms: _449  and  _450
REMARK  169  A    between atoms: _455  and  _457
REMARK  170  A    between atoms: _457  and  _458
REMARK  171  A    between atoms: _457  and  _460
REMARK  172  A    between atoms: _460  and  _461
REMARK  173  A    between atoms: _467  and  _469
REMARK  174  A    between atoms: _469  and  _470
REMARK  175  A    between atoms: _469  and  _472
REMARK  176  A    between atoms: _472  and  _473
REMARK  177  A    between atoms: _476  and  _478
REMARK  178  A    between atoms: _478  and  _479
REMARK  179  A    between atoms: _482  and  _484
REMARK  180  A    between atoms: _484  and  _485
REMARK  181  A    between atoms: _484  and  _487
REMARK  182  A    between atoms: _487  and  _488
REMARK  183  A    between atoms: _490  and  _492
REMARK  184  A    between atoms: _492  and  _493
REMARK  185  A    between atoms: _492  and  _495
REMARK                            x       y       z     vdW  Elec       q    Type
REMARK                         _______ _______ _______ _____ _____    ______ ____
ROOT
ATOM      1  CA  LEU A   1     -31.334 -39.030  24.042  0.00  0.00    +0.133 C 
ENDROOT
BRANCH   1   2
ATOM      2  N   LEU A   1     -31.825 -39.166  25.408  0.00  0.00    -0.239 NA
ATOM      3  H   LEU A   1     -31.265 -39.707  26.097  0.00  0.00    +0.142 HD
ENDBRANCH   1   2
BRANCH   1   4
ATOM      4  C   LEU A   1     -31.544 -40.273  23.169  0.00  0.00    +0.224 C 
ATOM      5  O   LEU A   1     -30.971 -40.373  22.081  0.00  0.00    -0.287 OA
ENDBRANCH   1   4
BRANCH   1   6
ATOM      6  CB  LEU A   1     -29.847 -38.668  24.065  0.00  0.00    +0.025 C 
BRANCH   6   7
ATOM      7  CG  LEU A   1     -29.507 -37.335  24.735  0.00  0.00    +0.002 C 
ATOM      8  CD2 LEU A   1     -28.019 -37.072  24.656  0.00  0.00    +0.000 C 
ATOM      9  CD1 LEU A   1     -30.273 -36.222  24.035  0.00  0.00    +0.000 C 
ENDBRANCH   6   7
ENDBRANCH   1   6
TORSDOF 4
REMARK  Name = ../refined-set-2016/1u1b/1u1b_pocket.pdb
REMARK  185 active torsions:
REMARK  status: ('A' for Active; 'I' for Inactive)
REMARK    1  A    between atoms: _1  and  _3
REMARK    2  A    between atoms: _3  and  _4
REMARK    3  A    between atoms: _3  and  _6
REMARK    4  A    between atoms: _6  and  _7
REMARK    5  A    between atoms: _7  and  _8
REMARK    6  A    between atoms: _11  and  _13
REMARK    7  A    between atoms: _13  and  _14
REMARK    8  A    between atoms: _13  and  _16
REMARK    9  A    between atoms: _16  and  _17
REMARK   10  A    between atoms: _20  and  _22
REMARK   11  A    between atoms: _22  and  _23
REMARK   12  A    between atoms: _26  and  _28
REMARK   13  A    between atoms: _28  and  _29
REMARK   14  A    between atoms: _32  and  _34
REMARK   15  A    between atoms: _34  and  _35
REMARK   16  A    between atoms: _34  and  _37
REMARK   17  A    between atoms: _37  and  _38
REMARK   18  A    between atoms: _38  and  _39
REMARK   19  A    between atoms: _39  and  _40
REMARK   20  A    between atoms: _40  and  _41
REMARK   21  A    between atoms: _45  and  _47
REMARK   22  A    between atoms: _47  and  _48
REMARK   23  A    between atoms: _47  and  _50
REMARK   24  A    between atoms: _50  and  _51
REMARK   25  A    between atoms: _57  and  _59
REMARK   26  A    between atoms: _59  and  _60
REMARK   27  A    between atoms: _59  and  _62
REMARK   28  A    between atoms: _62  and  _63
REMARK   29  A    between atoms: _63  and  _64
REMARK   30  A    between atoms: _64  and  _65
REMARK   31  A    between atoms: _74  and  _76
REMARK   32  A    between atoms: _76  and  _77
REMARK   33  A    between atoms: _76  and  _79
REMARK   34  A    between atoms: _79  and  _80
REMARK   35  A    between atoms: _80  and  _81
REMARK   36  A    between atoms: _86  and  _88
REMARK   37  A    between atoms: _88  and  _89
REMARK   38  A    between atoms: _88  and  _91
REMARK   39  A    between atoms: _91  and  _92
REMARK   40  A    between atoms: _97  and  _99
REMARK   41  A    between atoms: _99  and  _100
REMARK   42  A    between atoms: _99  and  _102
REMARK   43  A    between atoms: _102  and  _103
REMARK   44  A    between atoms: _103  and  _104
REMARK   45  A    between atoms: _106  and  _108
REMARK   46  A    between atoms: _108  and  _109
REMARK   47  A    between atoms: _108  and  _111
REMARK   48  A    between atoms: _111  and  _112
REMARK   49  A    between atoms: _115  and  _117
REMARK   50  A    between atoms: _117  and  _118
REMARK   51  A    between atoms: _117  and  _120
REMARK   52  A    between atoms: _120  and  _121
REMARK   53  A    between atoms: _121  and  _122
REMARK   54  A    between atoms: _122  and  _123
REMARK   55  A    between atoms: _132  and  _134
REMARK   56  A    between atoms: _134  and  _135
REMARK   57  A    between atoms: _134  and  _137
REMARK   58  A    between atoms: _137  and  _138
REMARK   59  A    between atoms: _138  and  _139
REMARK   60  A    between atoms: _139  and  _140
REMARK   61  A    between atoms: _140  and  _141
REMARK   62  A    between atoms: _146  and  _147
REMARK   63  A    between atoms: _152  and  _154
REMARK   64  A    between atoms: _154  and  _155
REMARK   65  A    between atoms: _154  and  _157
REMARK   66  A    between atoms: _160  and  _162
REMARK   67  A    between atoms: _162  and  _163
REMARK   68  A    between atoms: _162  and  _165
REMARK   69  A    between atoms: _165  and  _166
REMARK   70  A    between atoms: _171  and  _173
REMARK   71  A    between atoms: _173  and  _174
REMARK   72  A    between atoms: _173  and  _176
REMARK   73  A    between atoms: _176  and  _177
REMARK   74  A    between atoms: _180  and  _182
REMARK   75  A    between atoms: _182  and  _183
REMARK   76  A    between atoms: _182  and  _185
REMARK   77  A    between atoms: _185  and  _186
REMARK   78  A    between atoms: _192  and  _194
REMARK   79  A    between atoms: _194  and  _195
REMARK   80  A    between atoms: _194  and  _197
REMARK   81  A    between atoms: _200  and  _202
REMARK   82  A    between atoms: _202  and  _203
REMARK   83  A    between atoms: _202  and  _205
REMARK   84  A    between atoms: _208  and  _210
REMARK   85  A    between atoms: _210  and  _211
REMARK   86  A    between atoms: _214  and  _216
REMARK   87  A    between atoms: _223  and  _226
REMARK   88  A    between atoms: _226  and  _227
REMARK   89  A    between atoms: _227  and  _228
REMARK   90  A    between atoms: _228  and  _229
REMARK   91  A    between atoms: _229  and  _230
REMARK   92  A    between atoms: _236  and  _239
REMARK   93  A    between atoms: _239  and  _240
REMARK   94  A    between atoms: _252  and  _255
REMARK   95  A    between atoms: _255  and  _256
REMARK   96  A    between atoms: _256  and  _257
REMARK   97  A    between atoms: _264  and  _267
REMARK   98  A    between atoms: _267  and  _268
REMARK   99  A    between atoms: _273  and  _276
REMARK  100  A    between atoms: _276  and  _277
REMARK  101  A    between atoms: _284  and  _285
REMARK  102  A    between atoms: _289  and  _291
REMARK  103  A    between atoms: _291  and  _292
REMARK  104  A    between atoms: _291  and  _294
REMARK  105  A    between atoms: _294  and  _295
REMARK  106  A    between atoms: _300  and  _301
REMARK  107  A    between atoms: _303  and  _305
REMARK  108  A    between atoms: _305  and  _306
REMARK  109  A    between atoms: _305  and  _308
REMARK  110  A    between atoms: _308  and  _309
REMARK  111  A    between atoms: _312  and  _314
REMARK  112  A    between atoms: _314  and  _315
REMARK  113  A    between atoms: _314  and  _317
REMARK  114  A    between atoms: _317  and  _318
REMARK  115  A    between atoms: _321  and  _323
REMARK  116  A    between atoms: _323  and  _324
REMARK  117  A    between atoms: _323  and  _326
REMARK  118  A    between atoms: _326  and  _327
REMARK  119  A    between atoms: _330  and  _332
REMARK  120  A    between atoms: _332  and  _333
REMARK  121  A    between atoms: _332  and  _335
REMARK  122  A    between atoms: _337  and  _339
REMARK  123  A    between atoms: _339  and  _340
REMARK  124  A    between atoms: _339  and  _342
REMARK  125  A    between atoms: _342  and  _343
REMARK  126  A    between atoms: _343  and  _344
REMARK  127  A    between atoms: _344  and  _345
REMARK  128  A    between atoms: _354  and  _356
REMARK  129  A    between atoms: _356  and  _357
REMARK  130  A    between atoms: _356  and  _359
REMARK  131  A    between atoms: _359  and  _360
REMARK  132  A    between atoms: _360  and  _361
REMARK  133  A    between atoms: _361  and  _362
REMARK  134  A    between atoms: _362  and  _363
REMARK  135  A    between atoms: _367  and  _369
REMARK  136  A    between atoms: _369  and  _370
REMARK  137  A    between atoms: _369  and  _372
REMARK  138  A    between atoms: _372  and  _373
REMARK  139  A    between atoms: _376  and  _378
REMARK  140  A    between atoms: _378  and  _379
REMARK  141  A    between atoms: _378  and  _381
REMARK  142  A    between atoms: _381  and  _382
REMARK  143  A    between atoms: _385  and  _387
REMARK  144  A    between atoms: _387  and  _388
REMARK  145  A    between atoms: _387  and  _390
REMARK  146  A    between atoms: _393  and  _395
REMARK  147  A    between atoms: _395  and  _396
REMARK  148  A    between atoms: _399  and  _401
REMARK  149  A    between atoms: _401  and  _402
REMARK  150  A    between atoms: _401  and  _404
REMARK  151  A    between atoms: _406  and  _408
REMARK  152  A    between atoms: _408  and  _409
REMARK  153  A    between atoms: _408  and  _411
REMARK  154  A    between atoms: _411  and  _412
REMARK  155  A    between atoms: _412  and  _413
REMARK  156  A    between atoms: _416  and  _418
REMARK  157  A    between atoms: _418  and  _419
REMARK  158  A    between atoms: _421  and  _423
REMARK  159  A    between atoms: _423  and  _424
REMARK  160  A    between atoms: _423  and  _426
REMARK  161  A    between atoms: _430  and  _431
REMARK  162  A    between atoms: _436  and  _438
REMARK  163  A    between atoms: _438  and  _439
REMARK  164  A    between atoms: _438  and  _441
REMARK  165  A    between atoms: _444  and  _446
REMARK  166  A    between atoms: _446  and  _447
REMARK  167  A    between atoms: _446  and  _449
REMARK  168  A    between atoms: _449  and  _450
REMARK  169  A    between atoms: _455  and  _457
REMARK  170  A    between atoms: _457  and  _458
REMARK  171  A    between atoms: _457  and  _460
REMARK  172  A    between atoms: _460  and  _461
REMARK  173  A    between atoms: _467  and  _469
REMARK  174  A    between atoms: _469  and  _470
REMARK  175  A    between atoms: _469  and  _472
REMARK  176  A    between atoms: _472  and  _473
REMARK  177  A    between atoms: _476  and  _478
REMARK  178  A    between atoms: _478  and  _479
REMARK  179  A    between atoms: _482  and  _484
REMARK  180  A    between atoms: _484  and  _485
REMARK  181  A    between atoms: _484  and  _487
REMARK  182  A    between atoms: _487  and  _488
REMARK  183  A    between atoms: _490  and  _492
REMARK  184  A    between atoms: _492  and  _493
REMARK  185  A    between atoms: _492  and  _495
REMARK                            x       y       z     vdW  Elec       q    Type
REMARK                         _______ _______ _______ _____ _____    ______ ____
ROOT
ATOM      1  NE  ARG A   1     -33.211 -39.335  15.200  0.00  0.00    -0.265 N 
ATOM      2  HE  ARG A   1     -33.662 -38.398  15.180  0.00  0.00    +0.259 HD
ATOM      3  CZ  ARG A   1     -31.884 -39.392  15.111  0.00  0.00    +0.342 C 
ATOM      4  NH2 ARG A   1     -31.270 -40.566  15.129  0.00  0.00    -0.292 N 
ATOM      5 HH21 ARG A   1     -31.825 -41.442  15.213  0.00  0.00    +0.255 HD
ATOM      6 HH22 ARG A   1     -30.233 -40.612  15.060  0.00  0.00    +0.255 HD
ATOM      7  NH1 ARG A   1     -31.169 -38.280  15.003  0.00  0.00    -0.292 N 
ATOM      8 HH11 ARG A   1     -31.645 -37.355  14.987  0.00  0.00    +0.255 HD
ATOM      9 HH12 ARG A   1     -30.133 -38.333  14.934  0.00  0.00    +0.255 HD
ENDROOT
BRANCH   1  10
ATOM     10  CD  ARG A   1     -34.071 -40.508  15.324  0.00  0.00    +0.174 C 
BRANCH  10  11
ATOM     11  CG  ARG A   1     -33.953 -41.149  16.695  0.00  0.00    +0.045 C 
BRANCH  11  12
ATOM     12  CB  ARG A   1     -34.433 -42.584  16.659  0.00  0.00    +0.029 C 
BRANCH  12  13
ATOM     13  CA  ARG A   1     -34.446 -43.283  18.022  0.00  0.00    +0.133 C 
BRANCH  13  14
ATOM     14  N   ARG A   1     -35.387 -42.628  18.905  0.00  0.00    -0.239 NA
ATOM     15  H   ARG A   1     -35.031 -42.009  19.661  0.00  0.00    +0.142 HD
ENDBRANCH  13  14
BRANCH  13  16
ATOM     16  C   ARG A   1     -33.087 -43.175  18.679  0.00  0.00    +0.224 C 
ATOM     17  O   ARG A   1     -32.951 -42.539  19.722  0.00  0.00    -0.287 OA
ENDBRANCH  13  16
ENDBRANCH  12  13
ENDBRANCH  11  12
ENDBRANCH  10  11
ENDBRANCH   1  10
TORSDOF 6
REMARK  Name = ../refined-set-2016/1u1b/1u1b_pocket.pdb
REMARK  185 active torsions:
REMARK  status: ('A' for Active; 'I' for Inactive)
REMARK    1  A    between atoms: _1  and  _3
REMARK    2  A    between atoms: _3  and  _4
REMARK    3  A    between atoms: _3  and  _6
REMARK    4  A    between atoms: _6  and  _7
REMARK    5  A    between atoms: _7  and  _8
REMARK    6  A    between atoms: _11  and  _13
REMARK    7  A    between atoms: _13  and  _14
REMARK    8  A    between atoms: _13  and  _16
REMARK    9  A    between atoms: _16  and  _17
REMARK   10  A    between atoms: _20  and  _22
REMARK   11  A    between atoms: _22  and  _23
REMARK   12  A    between atoms: _26  and  _28
REMARK   13  A    between atoms: _28  and  _29
REMARK   14  A    between atoms: _32  and  _34
REMARK   15  A    between atoms: _34  and  _35
REMARK   16  A    between atoms: _34  and  _37
REMARK   17  A    between atoms: _37  and  _38
REMARK   18  A    between atoms: _38  and  _39
REMARK   19  A    between atoms: _39  and  _40
REMARK   20  A    between atoms: _40  and  _41
REMARK   21  A    between atoms: _45  and  _47
REMARK   22  A    between atoms: _47  and  _48
REMARK   23  A    between atoms: _47  and  _50
REMARK   24  A    between atoms: _50  and  _51
REMARK   25  A    between atoms: _57  and  _59
REMARK   26  A    between atoms: _59  and  _60
REMARK   27  A    between atoms: _59  and  _62
REMARK   28  A    between atoms: _62  and  _63
REMARK   29  A    between atoms: _63  and  _64
REMARK   30  A    between atoms: _64  and  _65
REMARK   31  A    between atoms: _74  and  _76
REMARK   32  A    between atoms: _76  and  _77
REMARK   33  A    between atoms: _76  and  _79
REMARK   34  A    between atoms: _79  and  _80
REMARK   35  A    between atoms: _80  and  _81
REMARK   36  A    between atoms: _86  and  _88
REMARK   37  A    between atoms: _88  and  _89
REMARK   38  A    between atoms: _88  and  _91
REMARK   39  A    between atoms: _91  and  _92
REMARK   40  A    between atoms: _97  and  _99
REMARK   41  A    between atoms: _99  and  _100
REMARK   42  A    between atoms: _99  and  _102
REMARK   43  A    between atoms: _102  and  _103
REMARK   44  A    between atoms: _103  and  _104
REMARK   45  A    between atoms: _106  and  _108
REMARK   46  A    between atoms: _108  and  _109
REMARK   47  A    between atoms: _108  and  _111
REMARK   48  A    between atoms: _111  and  _112
REMARK   49  A    between atoms: _115  and  _117
REMARK   50  A    between atoms: _117  and  _118
REMARK   51  A    between atoms: _117  and  _120
REMARK   52  A    between atoms: _120  and  _121
REMARK   53  A    between atoms: _121  and  _122
REMARK   54  A    between atoms: _122  and  _123
REMARK   55  A    between atoms: _132  and  _134
REMARK   56  A    between atoms: _134  and  _135
REMARK   57  A    between atoms: _134  and  _137
REMARK   58  A    between atoms: _137  and  _138
REMARK   59  A    between atoms: _138  and  _139
REMARK   60  A    between atoms: _139  and  _140
REMARK   61  A    between atoms: _140  and  _141
REMARK   62  A    between atoms: _146  and  _147
REMARK   63  A    between atoms: _152  and  _154
REMARK   64  A    between atoms: _154  and  _155
REMARK   65  A    between atoms: _154  and  _157
REMARK   66  A    between atoms: _160  and  _162
REMARK   67  A    between atoms: _162  and  _163
REMARK   68  A    between atoms: _162  and  _165
REMARK   69  A    between atoms: _165  and  _166
REMARK   70  A    between atoms: _171  and  _173
REMARK   71  A    between atoms: _173  and  _174
REMARK   72  A    between atoms: _173  and  _176
REMARK   73  A    between atoms: _176  and  _177
REMARK   74  A    between atoms: _180  and  _182
REMARK   75  A    between atoms: _182  and  _183
REMARK   76  A    between atoms: _182  and  _185
REMARK   77  A    between atoms: _185  and  _186
REMARK   78  A    between atoms: _192  and  _194
REMARK   79  A    between atoms: _194  and  _195
REMARK   80  A    between atoms: _194  and  _197
REMARK   81  A    between atoms: _200  and  _202
REMARK   82  A    between atoms: _202  and  _203
REMARK   83  A    between atoms: _202  and  _205
REMARK   84  A    between atoms: _208  and  _210
REMARK   85  A    between atoms: _210  and  _211
REMARK   86  A    between atoms: _214  and  _216
REMARK   87  A    between atoms: _223  and  _226
REMARK   88  A    between atoms: _226  and  _227
REMARK   89  A    between atoms: _227  and  _228
REMARK   90  A    between atoms: _228  and  _229
REMARK   91  A    between atoms: _229  and  _230
REMARK   92  A    between atoms: _236  and  _239
REMARK   93  A    between atoms: _239  and  _240
REMARK   94  A    between atoms: _252  and  _255
REMARK   95  A    between atoms: _255  and  _256
REMARK   96  A    between atoms: _256  and  _257
REMARK   97  A    between atoms: _264  and  _267
REMARK   98  A    between atoms: _267  and  _268
REMARK   99  A    between atoms: _273  and  _276
REMARK  100  A    between atoms: _276  and  _277
REMARK  101  A    between atoms: _284  and  _285
REMARK  102  A    between atoms: _289  and  _291
REMARK  103  A    between atoms: _291  and  _292
REMARK  104  A    between atoms: _291  and  _294
REMARK  105  A    between atoms: _294  and  _295
REMARK  106  A    between atoms: _300  and  _301
REMARK  107  A    between atoms: _303  and  _305
REMARK  108  A    between atoms: _305  and  _306
REMARK  109  A    between atoms: _305  and  _308
REMARK  110  A    between atoms: _308  and  _309
REMARK  111  A    between atoms: _312  and  _314
REMARK  112  A    between atoms: _314  and  _315
REMARK  113  A    between atoms: _314  and  _317
REMARK  114  A    between atoms: _317  and  _318
REMARK  115  A    between atoms: _321  and  _323
REMARK  116  A    between atoms: _323  and  _324
REMARK  117  A    between atoms: _323  and  _326
REMARK  118  A    between atoms: _326  and  _327
REMARK  119  A    between atoms: _330  and  _332
REMARK  120  A    between atoms: _332  and  _333
REMARK  121  A    between atoms: _332  and  _335
REMARK  122  A    between atoms: _337  and  _339
REMARK  123  A    between atoms: _339  and  _340
REMARK  124  A    between atoms: _339  and  _342
REMARK  125  A    between atoms: _342  and  _343
REMARK  126  A    between atoms: _343  and  _344
REMARK  127  A    between atoms: _344  and  _345
REMARK  128  A    between atoms: _354  and  _356
REMARK  129  A    between atoms: _356  and  _357
REMARK  130  A    between atoms: _356  and  _359
REMARK  131  A    between atoms: _359  and  _360
REMARK  132  A    between atoms: _360  and  _361
REMARK  133  A    between atoms: _361  and  _362
REMARK  134  A    between atoms: _362  and  _363
REMARK  135  A    between atoms: _367  and  _369
REMARK  136  A    between atoms: _369  and  _370
REMARK  137  A    between atoms: _369  and  _372
REMARK  138  A    between atoms: _372  and  _373
REMARK  139  A    between atoms: _376  and  _378
REMARK  140  A    between atoms: _378  and  _379
REMARK  141  A    between atoms: _378  and  _381
REMARK  142  A    between atoms: _381  and  _382
REMARK  143  A    between atoms: _385  and  _387
REMARK  144  A    between atoms: _387  and  _388
REMARK  145  A    between atoms: _387  and  _390
REMARK  146  A    between atoms: _393  and  _395
REMARK  147  A    between atoms: _395  and  _396
REMARK  148  A    between atoms: _399  and  _401
REMARK  149  A    between atoms: _401  and  _402
REMARK  150  A    between atoms: _401  and  _404
REMARK  151  A    between atoms: _406  and  _408
REMARK  152  A    between atoms: _408  and  _409
REMARK  153  A    between atoms: _408  and  _411
REMARK  154  A    between atoms: _411  and  _412
REMARK  155  A    between atoms: _412  and  _413
REMARK  156  A    between atoms: _416  and  _418
REMARK  157  A    between atoms: _418  and  _419
REMARK  158  A    between atoms: _421  and  _423
REMARK  159  A    between atoms: _423  and  _424
REMARK  160  A    between atoms: _423  and  _426
REMARK  161  A    between atoms: _430  and  _431
REMARK  162  A    between atoms: _436  and  _438
REMARK  163  A    between atoms: _438  and  _439
REMARK  164  A    between atoms: _438  and  _441
REMARK  165  A    between atoms: _444  and  _446
REMARK  166  A    between atoms: _446  and  _447
REMARK  167  A    between atoms: _446  and  _449
REMARK  168  A    between atoms: _449  and  _450
REMARK  169  A    between atoms: _455  and  _457
REMARK  170  A    between atoms: _457  and  _458
REMARK  171  A    between atoms: _457  and  _460
REMARK  172  A    between atoms: _460  and  _461
REMARK  173  A    between atoms: _467  and  _469
REMARK  174  A    between atoms: _469  and  _470
REMARK  175  A    between atoms: _469  and  _472
REMARK  176  A    between atoms: _472  and  _473
REMARK  177  A    between atoms: _476  and  _478
REMARK  178  A    between atoms: _478  and  _479
REMARK  179  A    between atoms: _482  and  _484
REMARK  180  A    between atoms: _484  and  _485
REMARK  181  A    between atoms: _484  and  _487
REMARK  182  A    between atoms: _487  and  _488
REMARK  183  A    between atoms: _490  and  _492
REMARK  184  A    between atoms: _492  and  _493
REMARK  185  A    between atoms: _492  and  _495
REMARK                            x       y       z     vdW  Elec       q    Type
REMARK                         _______ _______ _______ _____ _____    ______ ____
ROOT
ATOM      1  CA  ASN A   4     -23.592 -37.022  20.772  0.00  0.00    +0.158 C 
ENDROOT
BRANCH   1   2
ATOM      2  C   ASN A   4     -22.345 -36.762  21.619  0.00  0.00    +0.241 C 
ATOM      3  O   ASN A   4     -21.719 -37.695  22.109  0.00  0.00    -0.273 OA
ATOM      4  N   THR A   5     -21.992 -35.493  21.788  0.00  0.00    -0.295 N 
ATOM      5  H   THR A   5     -22.571 -34.743  21.359  0.00  0.00    +0.150 HD
BRANCH   4   6
ATOM      6  CA  THR A   5     -20.813 -35.128  22.561  0.00  0.00    +0.176 C 
BRANCH   6   7
ATOM      7  C   THR A   5     -21.129 -34.490  23.908  0.00  0.00    +0.243 C 
ATOM      8  N   PHE A   6     -20.401 -34.903  24.936  0.00  0.00    -0.297 N 
ATOM      9  H   PHE A   6     -19.684 -35.642  24.787  0.00  0.00    +0.150 HD
ATOM     10  O   THR A   5     -22.013 -33.642  24.016  0.00  0.00    -0.273 OA
BRANCH   8  11
ATOM     11  CA  PHE A   6     -20.583 -34.344  26.272  0.00  0.00    +0.153 C 
BRANCH  11  12
ATOM     12  C   PHE A   6     -19.321 -33.562  26.632  0.00  0.00    +0.241 C 
ATOM     13  N   VAL A   7     -19.517 -32.369  27.185  0.00  0.00    -0.298 N 
ATOM     14  H   VAL A   7     -20.494 -32.057  27.358  0.00  0.00    +0.150 HD
ATOM     15  O   PHE A   6     -18.203 -34.036  26.416  0.00  0.00    -0.273 OA
BRANCH  13  16
ATOM     16  CA  VAL A   7     -18.424 -31.477  27.561  0.00  0.00    +0.137 C 
BRANCH  16  17
ATOM     17  CB  VAL A   7     -18.730 -30.036  27.095  0.00  0.00    +0.026 C 
ATOM     18  CG2 VAL A   7     -17.512 -29.148  27.321  0.00  0.00    +0.002 C 
ATOM     19  CG1 VAL A   7     -19.145 -30.044  25.610  0.00  0.00    +0.002 C 
ENDBRANCH  16  17
BRANCH  16  20
ATOM     20  C   VAL A   7     -18.184 -31.479  29.078  0.00  0.00    +0.227 C 
ATOM     21  O   VAL A   7     -19.105 -31.224  29.865  0.00  0.00    -0.286 OA
ENDBRANCH  16  20
ENDBRANCH  13  16
ENDBRANCH  11  12
BRANCH  11  22
ATOM     22  CB  PHE A   6     -20.835 -35.457  27.293  0.00  0.00    +0.055 C 
BRANCH  22  23
ATOM     23  CG  PHE A   6     -22.202 -36.083  27.172  0.00  0.00    -0.020 A 
ATOM     24  CD2 PHE A   6     -23.339 -35.380  27.562  0.00  0.00    -0.004 A 
ATOM     25  CE2 PHE A   6     -24.612 -35.946  27.432  0.00  0.00    -0.000 A 
ATOM     26  CZ  PHE A   6     -24.754 -37.224  26.909  0.00  0.00    -0.000 A 
ATOM     27  CE1 PHE A   6     -23.631 -37.934  26.518  0.00  0.00    -0.000 A 
ATOM     28  CD1 PHE A   6     -22.354 -37.360  26.651  0.00  0.00    -0.004 A 
ENDBRANCH  22  23
ENDBRANCH  11  22
ENDBRANCH   8  11
ENDBRANCH   6   7
BRANCH   6  29
ATOM     29  CB  THR A   5     -19.942 -34.160  21.760  0.00  0.00    +0.137 C 
ATOM     30  CG2 THR A   5     -18.649 -33.842  22.518  0.00  0.00    +0.034 C 
BRANCH  29  31
ATOM     31  OG1 THR A   5     -19.623 -34.757  20.499  0.00  0.00    -0.382 OA
ATOM     32  HG1 THR A   5     -19.131 -35.603  20.651  0.00  0.00    +0.210 HD
ENDBRANCH  29  31
ENDBRANCH   6  29
ENDBRANCH   4   6
ENDBRANCH   1   2
BRANCH   1  34
ATOM     33  C   VAL A   3     -23.920 -38.119  18.641  0.00  0.00    +0.241 C 
ATOM     34  N   ASN A   4     -23.337 -38.102  19.830  0.00  0.00    -0.297 N 
ATOM     35  H   ASN A   4     -22.688 -38.871  20.094  0.00  0.00    +0.150 HD
ATOM     36  O   VAL A   3     -24.739 -37.264  18.277  0.00  0.00    -0.273 OA
BRANCH  33  37
ATOM     37  CA  VAL A   3     -23.539 -39.291  17.745  0.00  0.00    +0.149 C 
BRANCH  37  39
ATOM     38  C   PRO A   2     -24.729 -41.095  16.690  0.00  0.00    +0.241 C 
ATOM     39  N   VAL A   3     -24.682 -39.811  17.016  0.00  0.00    -0.297 N 
ATOM     40  H   VAL A   3     -25.462 -39.177  16.750  0.00  0.00    +0.150 HD
ATOM     41  O   PRO A   2     -23.832 -41.879  16.975  0.00  0.00    -0.273 OA
BRANCH  38  45
ATOM     42  C   LYS A   1     -27.596 -41.113  17.698  0.00  0.00    +0.241 C 
ATOM     43  O   LYS A   1     -26.945 -41.760  18.510  0.00  0.00    -0.273 OA
ATOM     44  N   PRO A   2     -27.204 -40.977  16.425  0.00  0.00    -0.272 N 
ATOM     45  CA  PRO A   2     -25.958 -41.558  15.917  0.00  0.00    +0.152 C 
ATOM     46  CB  PRO A   2     -25.921 -41.091  14.463  0.00  0.00    +0.031 C 
ATOM     47  CG  PRO A   2     -27.381 -40.935  14.116  0.00  0.00    +0.024 C 
ATOM     48  CD  PRO A   2     -27.934 -40.280  15.352  0.00  0.00    +0.094 C 
BRANCH  42  49
ATOM     49  CA  LYS A   1     -28.917 -40.469  18.108  0.00  0.00    +0.145 C 
BRANCH  49  50
ATOM     50  N   LYS A   1     -29.629 -41.581  18.710  0.00  0.00    -0.238 NA
ATOM     51  H   LYS A   1     -29.822 -41.589  19.732  0.00  0.00    +0.142 HD
ENDBRANCH  49  50
BRANCH  49  52
ATOM     52  CB  LYS A   1     -28.700 -39.354  19.136  0.00  0.00    +0.026 C 
BRANCH  52  53
ATOM     53  CG  LYS A   1     -28.171 -38.054  18.528  0.00  0.00    -0.000 C 
BRANCH  53  54
ATOM     54  CD  LYS A   1     -28.492 -36.833  19.392  0.00  0.00    -0.024 C 
BRANCH  54  55
ATOM     55  CE  LYS A   1     -29.998 -36.668  19.565  0.00  0.00    -0.086 C 
BRANCH  55  56
ATOM     56  NZ  LYS A   1     -30.373 -35.329  20.114  0.00  0.00    +0.380 N 
ATOM     57  HZ1 LYS A   1     -29.929 -35.201  21.046  0.00  0.00    -0.089 HD
ATOM     58  HZ2 LYS A   1     -31.407 -35.272  20.211  0.00  0.00    -0.089 HD
ATOM     59  HZ3 LYS A   1     -30.043 -34.585  19.466  0.00  0.00    -0.089 HD
ENDBRANCH  55  56
ENDBRANCH  54  55
ENDBRANCH  53  54
ENDBRANCH  52  53
ENDBRANCH  49  52
ENDBRANCH  42  49
ENDBRANCH  38  45
ENDBRANCH  37  39
BRANCH  37  60
ATOM     60  CB  VAL A   3     -22.398 -38.858  16.771  0.00  0.00    +0.027 C 
ATOM     61  CG2 VAL A   3     -21.136 -38.492  17.560  0.00  0.00    +0.002 C 
ATOM     62  CG1 VAL A   3     -22.849 -37.675  15.916  0.00  0.00    +0.002 C 
ENDBRANCH  37  60
ENDBRANCH  33  37
ENDBRANCH   1  34
BRANCH   1  63
ATOM     63  CB  ASN A   4     -24.765 -37.348  21.685  0.00  0.00    +0.114 C 
BRANCH  63  64
ATOM     64  CG  ASN A   4     -25.202 -36.141  22.483  0.00  0.00    +0.222 C 
ATOM     65  ND2 ASN A   4     -24.941 -36.149  23.790  0.00  0.00    -0.329 N 
ATOM     66 HD21 ASN A   4     -25.205 -35.333  24.378  0.00  0.00    +0.145 HD
ATOM     67 HD22 ASN A   4     -24.474 -36.972  24.222  0.00  0.00    +0.145 HD
ATOM     68  OD1 ASN A   4     -25.750 -35.199  21.924  0.00  0.00    -0.275 OA
ENDBRANCH  63  64
ENDBRANCH   1  63
TORSDOF 26
REMARK  Name = ../refined-set-2016/1u1b/1u1b_pocket.pdb
REMARK  185 active torsions:
REMARK  status: ('A' for Active; 'I' for Inactive)
REMARK    1  A    between atoms: _1  and  _3
REMARK    2  A    between atoms: _3  and  _4
REMARK    3  A    between atoms: _3  and  _6
REMARK    4  A    between atoms: _6  and  _7
REMARK    5  A    between atoms: _7  and  _8
REMARK    6  A    between atoms: _11  and  _13
REMARK    7  A    between atoms: _13  and  _14
REMARK    8  A    between atoms: _13  and  _16
REMARK    9  A    between atoms: _16  and  _17
REMARK   10  A    between atoms: _20  and  _22
REMARK   11  A    between atoms: _22  and  _23
REMARK   12  A    between atoms: _26  and  _28
REMARK   13  A    between atoms: _28  and  _29
REMARK   14  A    between atoms: _32  and  _34
REMARK   15  A    between atoms: _34  and  _35
REMARK   16  A    between atoms: _34  and  _37
REMARK   17  A    between atoms: _37  and  _38
REMARK   18  A    between atoms: _38  and  _39
REMARK   19  A    between atoms: _39  and  _40
REMARK   20  A    between atoms: _40  and  _41
REMARK   21  A    between atoms: _45  and  _47
REMARK   22  A    between atoms: _47  and  _48
REMARK   23  A    between atoms: _47  and  _50
REMARK   24  A    between atoms: _50  and  _51
REMARK   25  A    between atoms: _57  and  _59
REMARK   26  A    between atoms: _59  and  _60
REMARK   27  A    between atoms: _59  and  _62
REMARK   28  A    between atoms: _62  and  _63
REMARK   29  A    between atoms: _63  and  _64
REMARK   30  A    between atoms: _64  and  _65
REMARK   31  A    between atoms: _74  and  _76
REMARK   32  A    between atoms: _76  and  _77
REMARK   33  A    between atoms: _76  and  _79
REMARK   34  A    between atoms: _79  and  _80
REMARK   35  A    between atoms: _80  and  _81
REMARK   36  A    between atoms: _86  and  _88
REMARK   37  A    between atoms: _88  and  _89
REMARK   38  A    between atoms: _88  and  _91
REMARK   39  A    between atoms: _91  and  _92
REMARK   40  A    between atoms: _97  and  _99
REMARK   41  A    between atoms: _99  and  _100
REMARK   42  A    between atoms: _99  and  _102
REMARK   43  A    between atoms: _102  and  _103
REMARK   44  A    between atoms: _103  and  _104
REMARK   45  A    between atoms: _106  and  _108
REMARK   46  A    between atoms: _108  and  _109
REMARK   47  A    between atoms: _108  and  _111
REMARK   48  A    between atoms: _111  and  _112
REMARK   49  A    between atoms: _115  and  _117
REMARK   50  A    between atoms: _117  and  _118
REMARK   51  A    between atoms: _117  and  _120
REMARK   52  A    between atoms: _120  and  _121
REMARK   53  A    between atoms: _121  and  _122
REMARK   54  A    between atoms: _122  and  _123
REMARK   55  A    between atoms: _132  and  _134
REMARK   56  A    between atoms: _134  and  _135
REMARK   57  A    between atoms: _134  and  _137
REMARK   58  A    between atoms: _137  and  _138
REMARK   59  A    between atoms: _138  and  _139
REMARK   60  A    between atoms: _139  and  _140
REMARK   61  A    between atoms: _140  and  _141
REMARK   62  A    between atoms: _146  and  _147
REMARK   63  A    between atoms: _152  and  _154
REMARK   64  A    between atoms: _154  and  _155
REMARK   65  A    between atoms: _154  and  _157
REMARK   66  A    between atoms: _160  and  _162
REMARK   67  A    between atoms: _162  and  _163
REMARK   68  A    between atoms: _162  and  _165
REMARK   69  A    between atoms: _165  and  _166
REMARK   70  A    between atoms: _171  and  _173
REMARK   71  A    between atoms: _173  and  _174
REMARK   72  A    between atoms: _173  and  _176
REMARK   73  A    between atoms: _176  and  _177
REMARK   74  A    between atoms: _180  and  _182
REMARK   75  A    between atoms: _182  and  _183
REMARK   76  A    between atoms: _182  and  _185
REMARK   77  A    between atoms: _185  and  _186
REMARK   78  A    between atoms: _192  and  _194
REMARK   79  A    between atoms: _194  and  _195
REMARK   80  A    between atoms: _194  and  _197
REMARK   81  A    between atoms: _200  and  _202
REMARK   82  A    between atoms: _202  and  _203
REMARK   83  A    between atoms: _202  and  _205
REMARK   84  A    between atoms: _208  and  _210
REMARK   85  A    between atoms: _210  and  _211
REMARK   86  A    between atoms: _214  and  _216
REMARK   87  A    between atoms: _223  and  _226
REMARK   88  A    between atoms: _226  and  _227
REMARK   89  A    between atoms: _227  and  _228
REMARK   90  A    between atoms: _228  and  _229
REMARK   91  A    between atoms: _229  and  _230
REMARK   92  A    between atoms: _236  and  _239
REMARK   93  A    between atoms: _239  and  _240
REMARK   94  A    between atoms: _252  and  _255
REMARK   95  A    between atoms: _255  and  _256
REMARK   96  A    between atoms: _256  and  _257
REMARK   97  A    between atoms: _264  and  _267
REMARK   98  A    between atoms: _267  and  _268
REMARK   99  A    between atoms: _273  and  _276
REMARK  100  A    between atoms: _276  and  _277
REMARK  101  A    between atoms: _284  and  _285
REMARK  102  A    between atoms: _289  and  _291
REMARK  103  A    between atoms: _291  and  _292
REMARK  104  A    between atoms: _291  and  _294
REMARK  105  A    between atoms: _294  and  _295
REMARK  106  A    between atoms: _300  and  _301
REMARK  107  A    between atoms: _303  and  _305
REMARK  108  A    between atoms: _305  and  _306
REMARK  109  A    between atoms: _305  and  _308
REMARK  110  A    between atoms: _308  and  _309
REMARK  111  A    between atoms: _312  and  _314
REMARK  112  A    between atoms: _314  and  _315
REMARK  113  A    between atoms: _314  and  _317
REMARK  114  A    between atoms: _317  and  _318
REMARK  115  A    between atoms: _321  and  _323
REMARK  116  A    between atoms: _323  and  _324
REMARK  117  A    between atoms: _323  and  _326
REMARK  118  A    between atoms: _326  and  _327
REMARK  119  A    between atoms: _330  and  _332
REMARK  120  A    between atoms: _332  and  _333
REMARK  121  A    between atoms: _332  and  _335
REMARK  122  A    between atoms: _337  and  _339
REMARK  123  A    between atoms: _339  and  _340
REMARK  124  A    between atoms: _339  and  _342
REMARK  125  A    between atoms: _342  and  _343
REMARK  126  A    between atoms: _343  and  _344
REMARK  127  A    between atoms: _344  and  _345
REMARK  128  A    between atoms: _354  and  _356
REMARK  129  A    between atoms: _356  and  _357
REMARK  130  A    between atoms: _356  and  _359
REMARK  131  A    between atoms: _359  and  _360
REMARK  132  A    between atoms: _360  and  _361
REMARK  133  A    between atoms: _361  and  _362
REMARK  134  A    between atoms: _362  and  _363
REMARK  135  A    between atoms: _367  and  _369
REMARK  136  A    between atoms: _369  and  _370
REMARK  137  A    between atoms: _369  and  _372
REMARK  138  A    between atoms: _372  and  _373
REMARK  139  A    between atoms: _376  and  _378
REMARK  140  A    between atoms: _378  and  _379
REMARK  141  A    between atoms: _378  and  _381
REMARK  142  A    between atoms: _381  and  _382
REMARK  143  A    between atoms: _385  and  _387
REMARK  144  A    between atoms: _387  and  _388
REMARK  145  A    between atoms: _387  and  _390
REMARK  146  A    between atoms: _393  and  _395
REMARK  147  A    between atoms: _395  and  _396
REMARK  148  A    between atoms: _399  and  _401
REMARK  149  A    between atoms: _401  and  _402
REMARK  150  A    between atoms: _401  and  _404
REMARK  151  A    between atoms: _406  and  _408
REMARK  152  A    between atoms: _408  and  _409
REMARK  153  A    between atoms: _408  and  _411
REMARK  154  A    between atoms: _411  and  _412
REMARK  155  A    between atoms: _412  and  _413
REMARK  156  A    between atoms: _416  and  _418
REMARK  157  A    between atoms: _418  and  _419
REMARK  158  A    between atoms: _421  and  _423
REMARK  159  A    between atoms: _423  and  _424
REMARK  160  A    between atoms: _423  and  _426
REMARK  161  A    between atoms: _430  and  _431
REMARK  162  A    between atoms: _436  and  _438
REMARK  163  A    between atoms: _438  and  _439
REMARK  164  A    between atoms: _438  and  _441
REMARK  165  A    between atoms: _444  and  _446
REMARK  166  A    between atoms: _446  and  _447
REMARK  167  A    between atoms: _446  and  _449
REMARK  168  A    between atoms: _449  and  _450
REMARK  169  A    between atoms: _455  and  _457
REMARK  170  A    between atoms: _457  and  _458
REMARK  171  A    between atoms: _457  and  _460
REMARK  172  A    between atoms: _460  and  _461
REMARK  173  A    between atoms: _467  and  _469
REMARK  174  A    between atoms: _469  and  _470
REMARK  175  A    between atoms: _469  and  _472
REMARK  176  A    between atoms: _472  and  _473
REMARK  177  A    between atoms: _476  and  _478
REMARK  178  A    between atoms: _478  and  _479
REMARK  179  A    between atoms: _482  and  _484
REMARK  180  A    between atoms: _484  and  _485
REMARK  181  A    between atoms: _484  and  _487
REMARK  182  A    between atoms: _487  and  _488
REMARK  183  A    between atoms: _490  and  _492
REMARK  184  A    between atoms: _492  and  _493
REMARK  185  A    between atoms: _492  and  _495
REMARK                            x       y       z     vdW  Elec       q    Type
REMARK                         _______ _______ _______ _____ _____    ______ ____
ROOT
ATOM      1  CA  CYS A   3     -21.268 -23.632  11.002  0.00  0.00    +0.160 C 
ATOM      2  CB  CYS A   3     -22.714 -23.387  11.402  0.00  0.00    +0.098 C 
ATOM      3  SG  CYS A   3     -23.048 -22.150  12.689  0.00  0.00    -0.080 S 
ATOM      4  SG  CYS A  10     -22.078 -22.872  14.319  0.00  0.00    -0.080 S 
ATOM      5  CB  CYS A  10     -20.589 -21.832  14.427  0.00  0.00    +0.098 C 
ATOM      6  CA  CYS A  10     -20.887 -20.636  15.335  0.00  0.00    +0.160 C 
ATOM      7  N   CYS A  10     -21.670 -19.623  14.634  0.00  0.00    -0.296 N 
ATOM      8  C   ASN A   9     -22.746 -19.069  15.182  0.00  0.00    +0.241 C 
ATOM      9  O   ASN A   9     -23.152 -19.369  16.298  0.00  0.00    -0.273 OA
ATOM     10  CA  ASN A   9     -23.470 -18.021  14.344  0.00  0.00    +0.158 C 
ATOM     11  N   ASN A   9     -23.390 -18.343  12.932  0.00  0.00    -0.297 N 
ATOM     12  H   ASN A   9     -24.004 -19.074  12.520  0.00  0.00    +0.150 HD
ATOM     13  C   THR A   8     -22.518 -17.687  12.174  0.00  0.00    +0.243 C 
ATOM     14  O   THR A   8     -21.780 -16.809  12.631  0.00  0.00    -0.273 OA
ATOM     15  CA  THR A   8     -22.448 -18.052  10.699  0.00  0.00    +0.176 C 
ATOM     16  N   THR A   8     -23.649 -18.662  10.142  0.00  0.00    -0.295 N 
ATOM     17  H   THR A   8     -24.539 -18.125  10.134  0.00  0.00    +0.150 HD
ATOM     18  C   GLN A   7     -23.624 -19.893   9.644  0.00  0.00    +0.241 C 
ATOM     19  O   GLN A   7     -22.619 -20.595   9.662  0.00  0.00    -0.273 OA
ATOM     20  CA  GLN A   7     -24.915 -20.415   9.022  0.00  0.00    +0.149 C 
ATOM     21  N   GLN A   7     -24.577 -21.592   8.235  0.00  0.00    -0.297 N 
ATOM     22  H   GLN A   7     -24.898 -22.533   8.540  0.00  0.00    +0.150 HD
ATOM     23  C   GLY A   6     -23.857 -21.461   7.124  0.00  0.00    +0.243 C 
ATOM     24  O   GLY A   6     -23.505 -20.366   6.686  0.00  0.00    -0.273 OA
ATOM     25  CA  GLY A   6     -23.502 -22.723   6.374  0.00  0.00    +0.176 C 
ATOM     26  N   GLY A   6     -23.640 -23.950   7.131  0.00  0.00    -0.295 N 
ATOM     27  H   GLY A   6     -22.839 -24.315   7.685  0.00  0.00    +0.150 HD
ATOM     28  C   ASN A   5     -24.797 -24.609   7.115  0.00  0.00    +0.241 C 
ATOM     29  CA  ASN A   5     -24.852 -25.908   7.926  0.00  0.00    +0.158 C 
ATOM     30  N   ASN A   5     -23.671 -26.131   8.758  0.00  0.00    -0.297 N 
ATOM     31  H   ASN A   5     -23.657 -25.773   9.735  0.00  0.00    +0.150 HD
ATOM     32  C   LYS A   4     -22.613 -26.785   8.284  0.00  0.00    +0.241 C 
ATOM     33  CA  LYS A   4     -21.424 -26.989   9.237  0.00  0.00    +0.149 C 
ATOM     34  N   LYS A   4     -21.389 -25.928  10.223  0.00  0.00    -0.297 N 
ATOM     35  H   LYS A   4     -21.465 -26.168  11.232  0.00  0.00    +0.150 HD
ATOM     36  O   LYS A   4     -22.556 -27.196   7.130  0.00  0.00    -0.273 OA
ATOM     37  O   ASN A   5     -25.782 -24.211   6.477  0.00  0.00    -0.273 OA
ATOM     38  H   CYS A  10     -21.378 -19.327  13.681  0.00  0.00    +0.150 HD
ATOM     39  C   CYS A   3     -21.262 -24.658   9.866  0.00  0.00    +0.242 C 
ATOM     40  O   CYS A   3     -21.161 -24.306   8.690  0.00  0.00    -0.273 OA
ENDROOT
BRANCH   1  43
ATOM     41  C   ALA A   2     -19.360 -22.272  10.386  0.00  0.00    +0.241 C 
ATOM     42  O   ALA A   2     -18.564 -23.163  10.674  0.00  0.00    -0.273 OA
ATOM     43  N   CYS A   3     -20.671 -22.404  10.524  0.00  0.00    -0.296 N 
ATOM     44  H   CYS A   3     -21.288 -21.603  10.282  0.00  0.00    +0.150 HD
BRANCH  41  45
ATOM     45  CA  ALA A   2     -18.886 -20.930   9.829  0.00  0.00    +0.149 C 
ATOM     46  CB  ALA A   2     -18.614 -21.068   8.346  0.00  0.00    +0.031 C 
BRANCH  45  49
ATOM     47  C   VAL A   1     -17.779 -19.870  11.702  0.00  0.00    +0.238 C 
ATOM     48  O   VAL A   1     -18.848 -19.690  12.275  0.00  0.00    -0.274 OA
ATOM     49  N   ALA A   2     -17.693 -20.456  10.515  0.00  0.00    -0.297 N 
ATOM     50  H   ALA A   2     -16.761 -20.578  10.069  0.00  0.00    +0.150 HD
BRANCH  47  51
ATOM     51  CA  VAL A   1     -16.471 -19.419  12.341  0.00  0.00    +0.145 C 
BRANCH  51  52
ATOM     52  CB  VAL A   1     -15.666 -20.706  12.711  0.00  0.00    +0.025 C 
ATOM     53  CG2 VAL A   1     -16.505 -21.598  13.617  0.00  0.00    +0.002 C 
ATOM     54  CG1 VAL A   1     -14.351 -20.343  13.399  0.00  0.00    +0.002 C 
ENDBRANCH  51  52
BRANCH  51  55
ATOM     55  N   VAL A   1     -16.792 -18.593  13.507  0.00  0.00    -0.238 NA
ATOM     56  H   VAL A   1     -17.640 -18.816  14.067  0.00  0.00    +0.142 HD
ENDBRANCH  51  55
ENDBRANCH  47  51
ENDBRANCH  45  49
ENDBRANCH  41  45
ENDBRANCH   1  43
BRANCH   6  57
ATOM     57  C   CYS A  10     -19.598 -20.049  15.880  0.00  0.00    +0.242 C 
ATOM     58  N   TYR A  11     -19.142 -20.597  16.995  0.00  0.00    -0.298 N 
ATOM     59  H   TYR A  11     -19.659 -21.392  17.423  0.00  0.00    +0.150 HD
ATOM     60  O   CYS A  10     -19.041 -19.114  15.315  0.00  0.00    -0.273 OA
BRANCH  58  61
ATOM     61  CA  TYR A  11     -17.931 -20.106  17.632  0.00  0.00    +0.141 C 
BRANCH  61  62
ATOM     62  C   TYR A  11     -17.066 -21.264  18.090  0.00  0.00    +0.227 C 
ATOM     63  O   TYR A  11     -17.568 -22.279  18.616  0.00  0.00    -0.286 OA
ENDBRANCH  61  62
BRANCH  61  64
ATOM     64  CB  TYR A  11     -18.277 -19.200  18.816  0.00  0.00    +0.054 C 
BRANCH  64  65
ATOM     65  CG  TYR A  11     -19.082 -17.977  18.427  0.00  0.00    -0.020 A 
ATOM     66  CD2 TYR A  11     -20.464 -18.064  18.233  0.00  0.00    -0.001 A 
ATOM     67  CE2 TYR A  11     -21.207 -16.966  17.781  0.00  0.00    +0.036 A 
ATOM     68  CZ  TYR A  11     -20.569 -15.763  17.523  0.00  0.00    +0.134 A 
ATOM     69  CE1 TYR A  11     -19.189 -15.634  17.717  0.00  0.00    +0.036 A 
ATOM     70  CD1 TYR A  11     -18.453 -16.745  18.169  0.00  0.00    -0.001 A 
BRANCH  68  71
ATOM     71  OH  TYR A  11     -21.308 -14.705  17.047  0.00  0.00    -0.506 OA
ATOM     72  HH  TYR A  11     -22.258 -14.974  16.973  0.00  0.00    +0.292 HD
ENDBRANCH  68  71
ENDBRANCH  64  65
ENDBRANCH  61  64
ENDBRANCH  58  61
ENDBRANCH   6  57
BRANCH  15  73
ATOM     73  CB  THR A   8     -22.076 -16.777   9.912  0.00  0.00    +0.137 C 
ATOM     74  CG2 THR A   8     -21.801 -17.113   8.450  0.00  0.00    +0.034 C 
BRANCH  73  75
ATOM     75  OG1 THR A   8     -23.164 -15.843   9.986  0.00  0.00    -0.382 OA
ATOM     76  HG1 THR A   8     -23.335 -15.612  10.933  0.00  0.00    +0.210 HD
ENDBRANCH  73  75
ENDBRANCH  15  73
BRANCH  10  77
ATOM     77  CB  ASN A   9     -24.933 -17.863  14.784  0.00  0.00    +0.114 C 
BRANCH  77  78
ATOM     78  CG  ASN A   9     -25.745 -19.143  14.632  0.00  0.00    +0.222 C 
ATOM     79  ND2 ASN A   9     -26.637 -19.404  15.588  0.00  0.00    -0.329 N 
ATOM     80 HD21 ASN A   9     -26.739 -18.756  16.395  0.00  0.00    +0.145 HD
ATOM     81 HD22 ASN A   9     -27.230 -20.256  15.527  0.00  0.00    +0.145 HD
ATOM     82  OD1 ASN A   9     -25.586 -19.872  13.665  0.00  0.00    -0.275 OA
ENDBRANCH  77  78
ENDBRANCH  10  77
BRANCH  33  83
ATOM     83  CB  LYS A   4     -21.526 -28.352   9.946  0.00  0.00    +0.029 C 
BRANCH  83  84
ATOM     84  CG  LYS A   4     -20.257 -28.759  10.697  0.00  0.00    +0.000 C 
BRANCH  84  85
ATOM     85  CD  LYS A   4     -19.113 -29.040   9.729  0.00  0.00    -0.024 C 
BRANCH  85  86
ATOM     86  CE  LYS A   4     -17.752 -29.219  10.435  0.00  0.00    -0.086 C 
BRANCH  86  87
ATOM     87  NZ  LYS A   4     -17.184 -27.941  10.978  0.00  0.00    +0.380 N 
ATOM     88  HZ1 LYS A   4     -17.844 -27.537  11.673  0.00  0.00    -0.089 HD
ATOM     89  HZ2 LYS A   4     -16.272 -28.136  11.437  0.00  0.00    -0.089 HD
ATOM     90  HZ3 LYS A   4     -17.044 -27.267  10.199  0.00  0.00    -0.089 HD
ENDBRANCH  86  87
ENDBRANCH  85  86
ENDBRANCH  84  85
ENDBRANCH  83  84
ENDBRANCH  33  83
BRANCH  29  91
ATOM     91  CB  ASN A   5     -26.129 -25.959   8.790  0.00  0.00    +0.114 C 
BRANCH  91  92
ATOM     92  CG  ASN A   5     -26.424 -24.648   9.512  0.00  0.00    +0.222 C 
ATOM     93  ND2 ASN A   5     -27.685 -24.457   9.885  0.00  0.00    -0.329 N 
ATOM     94 HD21 ASN A   5     -27.951 -23.591  10.396  0.00  0.00    +0.145 HD
ATOM     95 HD22 ASN A   5     -28.406 -25.173   9.666  0.00  0.00    +0.145 HD
ATOM     96  OD1 ASN A   5     -25.540 -23.833   9.748  0.00  0.00    -0.275 OA
ENDBRANCH  91  92
ENDBRANCH  29  91
BRANCH  20  97
ATOM     97  CB  GLN A   7     -25.941 -20.754  10.100  0.00  0.00    +0.039 C 
BRANCH  97  98
ATOM     98  CG  GLN A   7     -27.347 -20.822   9.567  0.00  0.00    +0.087 C 
BRANCH  98  99
ATOM     99  CD  GLN A   7     -28.366 -20.704  10.663  0.00  0.00    +0.219 C 
ATOM    100  OE1 GLN A   7     -28.510 -21.607  11.492  0.00  0.00    -0.275 OA
ATOM    101  NE2 GLN A   7     -29.078 -19.579  10.691  0.00  0.00    -0.329 N 
ATOM    102 HE21 GLN A   7     -29.791 -19.433  11.434  0.00  0.00    +0.145 HD
ATOM    103 HE22 GLN A   7     -28.921 -18.846   9.970  0.00  0.00    +0.145 HD
ENDBRANCH  98  99
ENDBRANCH  97  98
ENDBRANCH  20  97
TORSDOF 26
REMARK  Name = ../refined-set-2016/1u1b/1u1b_pocket.pdb
REMARK  185 active torsions:
REMARK  status: ('A' for Active; 'I' for Inactive)
REMARK    1  A    between atoms: _1  and  _3
REMARK    2  A    between atoms: _3  and  _4
REMARK    3  A    between atoms: _3  and  _6
REMARK    4  A    between atoms: _6  and  _7
REMARK    5  A    between atoms: _7  and  _8
REMARK    6  A    between atoms: _11  and  _13
REMARK    7  A    between atoms: _13  and  _14
REMARK    8  A    between atoms: _13  and  _16
REMARK    9  A    between atoms: _16  and  _17
REMARK   10  A    between atoms: _20  and  _22
REMARK   11  A    between atoms: _22  and  _23
REMARK   12  A    between atoms: _26  and  _28
REMARK   13  A    between atoms: _28  and  _29
REMARK   14  A    between atoms: _32  and  _34
REMARK   15  A    between atoms: _34  and  _35
REMARK   16  A    between atoms: _34  and  _37
REMARK   17  A    between atoms: _37  and  _38
REMARK   18  A    between atoms: _38  and  _39
REMARK   19  A    between atoms: _39  and  _40
REMARK   20  A    between atoms: _40  and  _41
REMARK   21  A    between atoms: _45  and  _47
REMARK   22  A    between atoms: _47  and  _48
REMARK   23  A    between atoms: _47  and  _50
REMARK   24  A    between atoms: _50  and  _51
REMARK   25  A    between atoms: _57  and  _59
REMARK   26  A    between atoms: _59  and  _60
REMARK   27  A    between atoms: _59  and  _62
REMARK   28  A    between atoms: _62  and  _63
REMARK   29  A    between atoms: _63  and  _64
REMARK   30  A    between atoms: _64  and  _65
REMARK   31  A    between atoms: _74  and  _76
REMARK   32  A    between atoms: _76  and  _77
REMARK   33  A    between atoms: _76  and  _79
REMARK   34  A    between atoms: _79  and  _80
REMARK   35  A    between atoms: _80  and  _81
REMARK   36  A    between atoms: _86  and  _88
REMARK   37  A    between atoms: _88  and  _89
REMARK   38  A    between atoms: _88  and  _91
REMARK   39  A    between atoms: _91  and  _92
REMARK   40  A    between atoms: _97  and  _99
REMARK   41  A    between atoms: _99  and  _100
REMARK   42  A    between atoms: _99  and  _102
REMARK   43  A    between atoms: _102  and  _103
REMARK   44  A    between atoms: _103  and  _104
REMARK   45  A    between atoms: _106  and  _108
REMARK   46  A    between atoms: _108  and  _109
REMARK   47  A    between atoms: _108  and  _111
REMARK   48  A    between atoms: _111  and  _112
REMARK   49  A    between atoms: _115  and  _117
REMARK   50  A    between atoms: _117  and  _118
REMARK   51  A    between atoms: _117  and  _120
REMARK   52  A    between atoms: _120  and  _121
REMARK   53  A    between atoms: _121  and  _122
REMARK   54  A    between atoms: _122  and  _123
REMARK   55  A    between atoms: _132  and  _134
REMARK   56  A    between atoms: _134  and  _135
REMARK   57  A    between atoms: _134  and  _137
REMARK   58  A    between atoms: _137  and  _138
REMARK   59  A    between atoms: _138  and  _139
REMARK   60  A    between atoms: _139  and  _140
REMARK   61  A    between atoms: _140  and  _141
REMARK   62  A    between atoms: _146  and  _147
REMARK   63  A    between atoms: _152  and  _154
REMARK   64  A    between atoms: _154  and  _155
REMARK   65  A    between atoms: _154  and  _157
REMARK   66  A    between atoms: _160  and  _162
REMARK   67  A    between atoms: _162  and  _163
REMARK   68  A    between atoms: _162  and  _165
REMARK   69  A    between atoms: _165  and  _166
REMARK   70  A    between atoms: _171  and  _173
REMARK   71  A    between atoms: _173  and  _174
REMARK   72  A    between atoms: _173  and  _176
REMARK   73  A    between atoms: _176  and  _177
REMARK   74  A    between atoms: _180  and  _182
REMARK   75  A    between atoms: _182  and  _183
REMARK   76  A    between atoms: _182  and  _185
REMARK   77  A    between atoms: _185  and  _186
REMARK   78  A    between atoms: _192  and  _194
REMARK   79  A    between atoms: _194  and  _195
REMARK   80  A    between atoms: _194  and  _197
REMARK   81  A    between atoms: _200  and  _202
REMARK   82  A    between atoms: _202  and  _203
REMARK   83  A    between atoms: _202  and  _205
REMARK   84  A    between atoms: _208  and  _210
REMARK   85  A    between atoms: _210  and  _211
REMARK   86  A    between atoms: _214  and  _216
REMARK   87  A    between atoms: _223  and  _226
REMARK   88  A    between atoms: _226  and  _227
REMARK   89  A    between atoms: _227  and  _228
REMARK   90  A    between atoms: _228  and  _229
REMARK   91  A    between atoms: _229  and  _230
REMARK   92  A    between atoms: _236  and  _239
REMARK   93  A    between atoms: _239  and  _240
REMARK   94  A    between atoms: _252  and  _255
REMARK   95  A    between atoms: _255  and  _256
REMARK   96  A    between atoms: _256  and  _257
REMARK   97  A    between atoms: _264  and  _267
REMARK   98  A    between atoms: _267  and  _268
REMARK   99  A    between atoms: _273  and  _276
REMARK  100  A    between atoms: _276  and  _277
REMARK  101  A    between atoms: _284  and  _285
REMARK  102  A    between atoms: _289  and  _291
REMARK  103  A    between atoms: _291  and  _292
REMARK  104  A    between atoms: _291  and  _294
REMARK  105  A    between atoms: _294  and  _295
REMARK  106  A    between atoms: _300  and  _301
REMARK  107  A    between atoms: _303  and  _305
REMARK  108  A    between atoms: _305  and  _306
REMARK  109  A    between atoms: _305  and  _308
REMARK  110  A    between atoms: _308  and  _309
REMARK  111  A    between atoms: _312  and  _314
REMARK  112  A    between atoms: _314  and  _315
REMARK  113  A    between atoms: _314  and  _317
REMARK  114  A    between atoms: _317  and  _318
REMARK  115  A    between atoms: _321  and  _323
REMARK  116  A    between atoms: _323  and  _324
REMARK  117  A    between atoms: _323  and  _326
REMARK  118  A    between atoms: _326  and  _327
REMARK  119  A    between atoms: _330  and  _332
REMARK  120  A    between atoms: _332  and  _333
REMARK  121  A    between atoms: _332  and  _335
REMARK  122  A    between atoms: _337  and  _339
REMARK  123  A    between atoms: _339  and  _340
REMARK  124  A    between atoms: _339  and  _342
REMARK  125  A    between atoms: _342  and  _343
REMARK  126  A    between atoms: _343  and  _344
REMARK  127  A    between atoms: _344  and  _345
REMARK  128  A    between atoms: _354  and  _356
REMARK  129  A    between atoms: _356  and  _357
REMARK  130  A    between atoms: _356  and  _359
REMARK  131  A    between atoms: _359  and  _360
REMARK  132  A    between atoms: _360  and  _361
REMARK  133  A    between atoms: _361  and  _362
REMARK  134  A    between atoms: _362  and  _363
REMARK  135  A    between atoms: _367  and  _369
REMARK  136  A    between atoms: _369  and  _370
REMARK  137  A    between atoms: _369  and  _372
REMARK  138  A    between atoms: _372  and  _373
REMARK  139  A    between atoms: _376  and  _378
REMARK  140  A    between atoms: _378  and  _379
REMARK  141  A    between atoms: _378  and  _381
REMARK  142  A    between atoms: _381  and  _382
REMARK  143  A    between atoms: _385  and  _387
REMARK  144  A    between atoms: _387  and  _388
REMARK  145  A    between atoms: _387  and  _390
REMARK  146  A    between atoms: _393  and  _395
REMARK  147  A    between atoms: _395  and  _396
REMARK  148  A    between atoms: _399  and  _401
REMARK  149  A    between atoms: _401  and  _402
REMARK  150  A    between atoms: _401  and  _404
REMARK  151  A    between atoms: _406  and  _408
REMARK  152  A    between atoms: _408  and  _409
REMARK  153  A    between atoms: _408  and  _411
REMARK  154  A    between atoms: _411  and  _412
REMARK  155  A    between atoms: _412  and  _413
REMARK  156  A    between atoms: _416  and  _418
REMARK  157  A    between atoms: _418  and  _419
REMARK  158  A    between atoms: _421  and  _423
REMARK  159  A    between atoms: _423  and  _424
REMARK  160  A    between atoms: _423  and  _426
REMARK  161  A    between atoms: _430  and  _431
REMARK  162  A    between atoms: _436  and  _438
REMARK  163  A    between atoms: _438  and  _439
REMARK  164  A    between atoms: _438  and  _441
REMARK  165  A    between atoms: _444  and  _446
REMARK  166  A    between atoms: _446  and  _447
REMARK  167  A    between atoms: _446  and  _449
REMARK  168  A    between atoms: _449  and  _450
REMARK  169  A    between atoms: _455  and  _457
REMARK  170  A    between atoms: _457  and  _458
REMARK  171  A    between atoms: _457  and  _460
REMARK  172  A    between atoms: _460  and  _461
REMARK  173  A    between atoms: _467  and  _469
REMARK  174  A    between atoms: _469  and  _470
REMARK  175  A    between atoms: _469  and  _472
REMARK  176  A    between atoms: _472  and  _473
REMARK  177  A    between atoms: _476  and  _478
REMARK  178  A    between atoms: _478  and  _479
REMARK  179  A    between atoms: _482  and  _484
REMARK  180  A    between atoms: _484  and  _485
REMARK  181  A    between atoms: _484  and  _487
REMARK  182  A    between atoms: _487  and  _488
REMARK  183  A    between atoms: _490  and  _492
REMARK  184  A    between atoms: _492  and  _493
REMARK  185  A    between atoms: _492  and  _495
REMARK                            x       y       z     vdW  Elec       q    Type
REMARK                         _______ _______ _______ _____ _____    ______ ____
ROOT
ATOM      1  C   ASP A   3     -18.617 -39.823  22.122  0.00  0.00    +0.241 C 
ATOM      2  O   ASP A   3     -17.947 -40.828  22.339  0.00  0.00    -0.273 OA
ATOM      3  N   CYS A   4     -19.936 -39.850  21.998  0.00  0.00    -0.296 N 
ATOM      4  H   CYS A   4     -20.450 -38.962  21.827  0.00  0.00    +0.150 HD
ENDROOT
BRANCH   3   5
ATOM      5  CA  CYS A   4     -20.679 -41.097  22.096  0.00  0.00    +0.160 C 
BRANCH   5   6
ATOM      6  C   CYS A   4     -21.117 -41.465  20.674  0.00  0.00    +0.242 C 
ATOM      7  N   ARG A   5     -20.585 -42.566  20.154  0.00  0.00    -0.298 N 
ATOM      8  H   ARG A   5     -19.916 -43.124  20.722  0.00  0.00    +0.150 HD
ATOM      9  O   CYS A   4     -21.893 -40.742  20.047  0.00  0.00    -0.273 OA
BRANCH   7  10
ATOM     10  CA  ARG A   5     -20.917 -43.010  18.808  0.00  0.00    +0.137 C 
BRANCH  10  11
ATOM     11  C   ARG A   5     -21.464 -44.434  18.787  0.00  0.00    +0.227 C 
ATOM     12  O   ARG A   5     -20.879 -45.342  19.385  0.00  0.00    -0.286 OA
ENDBRANCH  10  11
BRANCH  10  13
ATOM     13  CB  ARG A   5     -19.682 -42.941  17.899  0.00  0.00    +0.031 C 
BRANCH  13  14
ATOM     14  CG  ARG A   5     -19.568 -41.663  17.100  0.00  0.00    +0.045 C 
BRANCH  14  15
ATOM     15  CD  ARG A   5     -18.503 -41.774  16.025  0.00  0.00    +0.174 C 
BRANCH  15  16
ATOM     16  NE  ARG A   5     -18.584 -40.667  15.072  0.00  0.00    -0.265 N 
ATOM     17  HE  ARG A   5     -17.775 -40.016  15.012  0.00  0.00    +0.259 HD
ATOM     18  CZ  ARG A   5     -19.628 -40.440  14.276  0.00  0.00    +0.342 C 
ATOM     19  NH2 ARG A   5     -20.689 -41.239  14.317  0.00  0.00    -0.292 N 
ATOM     20 HH21 ARG A   5     -20.707 -42.046  14.973  0.00  0.00    +0.255 HD
ATOM     21 HH22 ARG A   5     -21.501 -41.057  13.693  0.00  0.00    +0.255 HD
ATOM     22  NH1 ARG A   5     -19.605 -39.416  13.429  0.00  0.00    -0.292 N 
ATOM     23 HH11 ARG A   5     -18.773 -38.793  13.388  0.00  0.00    +0.255 HD
ATOM     24 HH12 ARG A   5     -20.419 -39.237  12.807  0.00  0.00    +0.255 HD
ENDBRANCH  15  16
ENDBRANCH  14  15
ENDBRANCH  13  14
ENDBRANCH  10  13
ENDBRANCH   7  10
ENDBRANCH   5   6
BRANCH   5  25
ATOM     25  CB  CYS A   4     -21.899 -40.914  23.004  0.00  0.00    +0.098 C 
ATOM     26  SG  CYS A   4     -21.517 -40.611  24.768  0.00  0.00    -0.080 S 
ENDBRANCH   5  25
ENDBRANCH   3   5
BRANCH   1  27
ATOM     27  CA  ASP A   3     -17.946 -38.469  21.971  0.00  0.00    +0.160 C 
BRANCH  27  30
ATOM     28  C   THR A   2     -17.572 -37.595  24.201  0.00  0.00    +0.243 C 
ATOM     29  O   THR A   2     -18.708 -37.132  24.249  0.00  0.00    -0.273 OA
ATOM     30  N   ASP A   3     -17.109 -38.238  23.137  0.00  0.00    -0.296 N 
ATOM     31  H   ASP A   3     -16.128 -38.584  23.137  0.00  0.00    +0.150 HD
BRANCH  28  32
ATOM     32  CA  THR A   2     -16.618 -37.429  25.388  0.00  0.00    +0.176 C 
BRANCH  32  35
ATOM     33  C   ILE A   1     -15.183 -35.496  25.788  0.00  0.00    +0.238 C 
ATOM     34  O   ILE A   1     -14.156 -36.173  25.799  0.00  0.00    -0.274 OA
ATOM     35  N   THR A   2     -16.392 -36.009  25.609  0.00  0.00    -0.295 N 
ATOM     36  H   THR A   2     -17.213 -35.370  25.627  0.00  0.00    +0.150 HD
BRANCH  33  37
ATOM     37  CA  ILE A   1     -15.133 -33.975  25.960  0.00  0.00    +0.145 C 
BRANCH  37  38
ATOM     38  N   ILE A   1     -13.833 -33.519  26.458  0.00  0.00    -0.238 NA
ATOM     39  H   ILE A   1     -12.964 -33.949  26.081  0.00  0.00    +0.142 HD
ENDBRANCH  37  38
BRANCH  37  40
ATOM     40  CB  ILE A   1     -15.469 -33.333  24.578  0.00  0.00    +0.025 C 
ATOM     41  CG2 ILE A   1     -15.383 -31.791  24.665  0.00  0.00    +0.002 C 
BRANCH  40  42
ATOM     42  CG1 ILE A   1     -14.492 -33.852  23.516  0.00  0.00    +0.002 C 
ATOM     43  CD1 ILE A   1     -14.804 -33.395  22.090  0.00  0.00    +0.000 C 
ENDBRANCH  40  42
ENDBRANCH  37  40
ENDBRANCH  33  37
ENDBRANCH  32  35
BRANCH  32  44
ATOM     44  CB  THR A   2     -17.260 -38.092  26.612  0.00  0.00    +0.137 C 
ATOM     45  CG2 THR A   2     -17.773 -39.473  26.250  0.00  0.00    +0.034 C 
BRANCH  44  46
ATOM     46  OG1 THR A   2     -16.294 -38.195  27.671  0.00  0.00    -0.382 OA
ATOM     47  HG1 THR A   2     -15.977 -37.290  27.916  0.00  0.00    +0.210 HD
ENDBRANCH  44  46
ENDBRANCH  32  44
ENDBRANCH  28  32
ENDBRANCH  27  30
BRANCH  27  48
ATOM     48  CB  ASP A   3     -17.128 -38.496  20.675  0.00  0.00    +0.143 C 
BRANCH  48  49
ATOM     49  CG  ASP A   3     -16.712 -37.121  20.207  0.00  0.00    +0.367 C 
ATOM     50  OD2 ASP A   3     -17.497 -36.155  20.371  0.00  0.00    -0.246 OA
ATOM     51  OD1 ASP A   3     -15.600 -37.017  19.656  0.00  0.00    -0.246 OA
ENDBRANCH  48  49
ENDBRANCH  27  48
ENDBRANCH   1  27
TORSDOF 21
REMARK  Name = ../refined-set-2016/1u1b/1u1b_pocket.pdb
REMARK  185 active torsions:
REMARK  status: ('A' for Active; 'I' for Inactive)
REMARK    1  A    between atoms: _1  and  _3
REMARK    2  A    between atoms: _3  and  _4
REMARK    3  A    between atoms: _3  and  _6
REMARK    4  A    between atoms: _6  and  _7
REMARK    5  A    between atoms: _7  and  _8
REMARK    6  A    between atoms: _11  and  _13
REMARK    7  A    between atoms: _13  and  _14
REMARK    8  A    between atoms: _13  and  _16
REMARK    9  A    between atoms: _16  and  _17
REMARK   10  A    between atoms: _20  and  _22
REMARK   11  A    between atoms: _22  and  _23
REMARK   12  A    between atoms: _26  and  _28
REMARK   13  A    between atoms: _28  and  _29
REMARK   14  A    between atoms: _32  and  _34
REMARK   15  A    between atoms: _34  and  _35
REMARK   16  A    between atoms: _34  and  _37
REMARK   17  A    between atoms: _37  and  _38
REMARK   18  A    between atoms: _38  and  _39
REMARK   19  A    between atoms: _39  and  _40
REMARK   20  A    between atoms: _40  and  _41
REMARK   21  A    between atoms: _45  and  _47
REMARK   22  A    between atoms: _47  and  _48
REMARK   23  A    between atoms: _47  and  _50
REMARK   24  A    between atoms: _50  and  _51
REMARK   25  A    between atoms: _57  and  _59
REMARK   26  A    between atoms: _59  and  _60
REMARK   27  A    between atoms: _59  and  _62
REMARK   28  A    between atoms: _62  and  _63
REMARK   29  A    between atoms: _63  and  _64
REMARK   30  A    between atoms: _64  and  _65
REMARK   31  A    between atoms: _74  and  _76
REMARK   32  A    between atoms: _76  and  _77
REMARK   33  A    between atoms: _76  and  _79
REMARK   34  A    between atoms: _79  and  _80
REMARK   35  A    between atoms: _80  and  _81
REMARK   36  A    between atoms: _86  and  _88
REMARK   37  A    between atoms: _88  and  _89
REMARK   38  A    between atoms: _88  and  _91
REMARK   39  A    between atoms: _91  and  _92
REMARK   40  A    between atoms: _97  and  _99
REMARK   41  A    between atoms: _99  and  _100
REMARK   42  A    between atoms: _99  and  _102
REMARK   43  A    between atoms: _102  and  _103
REMARK   44  A    between atoms: _103  and  _104
REMARK   45  A    between atoms: _106  and  _108
REMARK   46  A    between atoms: _108  and  _109
REMARK   47  A    between atoms: _108  and  _111
REMARK   48  A    between atoms: _111  and  _112
REMARK   49  A    between atoms: _115  and  _117
REMARK   50  A    between atoms: _117  and  _118
REMARK   51  A    between atoms: _117  and  _120
REMARK   52  A    between atoms: _120  and  _121
REMARK   53  A    between atoms: _121  and  _122
REMARK   54  A    between atoms: _122  and  _123
REMARK   55  A    between atoms: _132  and  _134
REMARK   56  A    between atoms: _134  and  _135
REMARK   57  A    between atoms: _134  and  _137
REMARK   58  A    between atoms: _137  and  _138
REMARK   59  A    between atoms: _138  and  _139
REMARK   60  A    between atoms: _139  and  _140
REMARK   61  A    between atoms: _140  and  _141
REMARK   62  A    between atoms: _146  and  _147
REMARK   63  A    between atoms: _152  and  _154
REMARK   64  A    between atoms: _154  and  _155
REMARK   65  A    between atoms: _154  and  _157
REMARK   66  A    between atoms: _160  and  _162
REMARK   67  A    between atoms: _162  and  _163
REMARK   68  A    between atoms: _162  and  _165
REMARK   69  A    between atoms: _165  and  _166
REMARK   70  A    between atoms: _171  and  _173
REMARK   71  A    between atoms: _173  and  _174
REMARK   72  A    between atoms: _173  and  _176
REMARK   73  A    between atoms: _176  and  _177
REMARK   74  A    between atoms: _180  and  _182
REMARK   75  A    between atoms: _182  and  _183
REMARK   76  A    between atoms: _182  and  _185
REMARK   77  A    between atoms: _185  and  _186
REMARK   78  A    between atoms: _192  and  _194
REMARK   79  A    between atoms: _194  and  _195
REMARK   80  A    between atoms: _194  and  _197
REMARK   81  A    between atoms: _200  and  _202
REMARK   82  A    between atoms: _202  and  _203
REMARK   83  A    between atoms: _202  and  _205
REMARK   84  A    between atoms: _208  and  _210
REMARK   85  A    between atoms: _210  and  _211
REMARK   86  A    between atoms: _214  and  _216
REMARK   87  A    between atoms: _223  and  _226
REMARK   88  A    between atoms: _226  and  _227
REMARK   89  A    between atoms: _227  and  _228
REMARK   90  A    between atoms: _228  and  _229
REMARK   91  A    between atoms: _229  and  _230
REMARK   92  A    between atoms: _236  and  _239
REMARK   93  A    between atoms: _239  and  _240
REMARK   94  A    between atoms: _252  and  _255
REMARK   95  A    between atoms: _255  and  _256
REMARK   96  A    between atoms: _256  and  _257
REMARK   97  A    between atoms: _264  and  _267
REMARK   98  A    between atoms: _267  and  _268
REMARK   99  A    between atoms: _273  and  _276
REMARK  100  A    between atoms: _276  and  _277
REMARK  101  A    between atoms: _284  and  _285
REMARK  102  A    between atoms: _289  and  _291
REMARK  103  A    between atoms: _291  and  _292
REMARK  104  A    between atoms: _291  and  _294
REMARK  105  A    between atoms: _294  and  _295
REMARK  106  A    between atoms: _300  and  _301
REMARK  107  A    between atoms: _303  and  _305
REMARK  108  A    between atoms: _305  and  _306
REMARK  109  A    between atoms: _305  and  _308
REMARK  110  A    between atoms: _308  and  _309
REMARK  111  A    between atoms: _312  and  _314
REMARK  112  A    between atoms: _314  and  _315
REMARK  113  A    between atoms: _314  and  _317
REMARK  114  A    between atoms: _317  and  _318
REMARK  115  A    between atoms: _321  and  _323
REMARK  116  A    between atoms: _323  and  _324
REMARK  117  A    between atoms: _323  and  _326
REMARK  118  A    between atoms: _326  and  _327
REMARK  119  A    between atoms: _330  and  _332
REMARK  120  A    between atoms: _332  and  _333
REMARK  121  A    between atoms: _332  and  _335
REMARK  122  A    between atoms: _337  and  _339
REMARK  123  A    between atoms: _339  and  _340
REMARK  124  A    between atoms: _339  and  _342
REMARK  125  A    between atoms: _342  and  _343
REMARK  126  A    between atoms: _343  and  _344
REMARK  127  A    between atoms: _344  and  _345
REMARK  128  A    between atoms: _354  and  _356
REMARK  129  A    between atoms: _356  and  _357
REMARK  130  A    between atoms: _356  and  _359
REMARK  131  A    between atoms: _359  and  _360
REMARK  132  A    between atoms: _360  and  _361
REMARK  133  A    between atoms: _361  and  _362
REMARK  134  A    between atoms: _362  and  _363
REMARK  135  A    between atoms: _367  and  _369
REMARK  136  A    between atoms: _369  and  _370
REMARK  137  A    between atoms: _369  and  _372
REMARK  138  A    between atoms: _372  and  _373
REMARK  139  A    between atoms: _376  and  _378
REMARK  140  A    between atoms: _378  and  _379
REMARK  141  A    between atoms: _378  and  _381
REMARK  142  A    between atoms: _381  and  _382
REMARK  143  A    between atoms: _385  and  _387
REMARK  144  A    between atoms: _387  and  _388
REMARK  145  A    between atoms: _387  and  _390
REMARK  146  A    between atoms: _393  and  _395
REMARK  147  A    between atoms: _395  and  _396
REMARK  148  A    between atoms: _399  and  _401
REMARK  149  A    between atoms: _401  and  _402
REMARK  150  A    between atoms: _401  and  _404
REMARK  151  A    between atoms: _406  and  _408
REMARK  152  A    between atoms: _408  and  _409
REMARK  153  A    between atoms: _408  and  _411
REMARK  154  A    between atoms: _411  and  _412
REMARK  155  A    between atoms: _412  and  _413
REMARK  156  A    between atoms: _416  and  _418
REMARK  157  A    between atoms: _418  and  _419
REMARK  158  A    between atoms: _421  and  _423
REMARK  159  A    between atoms: _423  and  _424
REMARK  160  A    between atoms: _423  and  _426
REMARK  161  A    between atoms: _430  and  _431
REMARK  162  A    between atoms: _436  and  _438
REMARK  163  A    between atoms: _438  and  _439
REMARK  164  A    between atoms: _438  and  _441
REMARK  165  A    between atoms: _444  and  _446
REMARK  166  A    between atoms: _446  and  _447
REMARK  167  A    between atoms: _446  and  _449
REMARK  168  A    between atoms: _449  and  _450
REMARK  169  A    between atoms: _455  and  _457
REMARK  170  A    between atoms: _457  and  _458
REMARK  171  A    between atoms: _457  and  _460
REMARK  172  A    between atoms: _460  and  _461
REMARK  173  A    between atoms: _467  and  _469
REMARK  174  A    between atoms: _469  and  _470
REMARK  175  A    between atoms: _469  and  _472
REMARK  176  A    between atoms: _472  and  _473
REMARK  177  A    between atoms: _476  and  _478
REMARK  178  A    between atoms: _478  and  _479
REMARK  179  A    between atoms: _482  and  _484
REMARK  180  A    between atoms: _484  and  _485
REMARK  181  A    between atoms: _484  and  _487
REMARK  182  A    between atoms: _487  and  _488
REMARK  183  A    between atoms: _490  and  _492
REMARK  184  A    between atoms: _492  and  _493
REMARK  185  A    between atoms: _492  and  _495
REMARK                            x       y       z     vdW  Elec       q    Type
REMARK                         _______ _______ _______ _____ _____    ______ ____
ROOT
ATOM      1  CG  LYS A   1     -10.076 -32.750  19.887  0.00  0.00    -0.000 C 
ENDROOT
BRANCH   1   2
ATOM      2  CB  LYS A   1     -10.903 -31.567  20.356  0.00  0.00    +0.025 C 
BRANCH   2   3
ATOM      3  CA  LYS A   1     -10.251 -30.751  21.477  0.00  0.00    +0.133 C 
BRANCH   3   4
ATOM      4  N   LYS A   1     -10.238 -31.521  22.718  0.00  0.00    -0.239 NA
ATOM      5  H   LYS A   1     -11.053 -31.473  23.362  0.00  0.00    +0.142 HD
ENDBRANCH   3   4
BRANCH   3   6
ATOM      6  C   LYS A   1     -11.006 -29.447  21.604  0.00  0.00    +0.224 C 
ATOM      7  O   LYS A   1     -11.673 -29.195  22.605  0.00  0.00    -0.287 OA
ENDBRANCH   3   6
ENDBRANCH   2   3
ENDBRANCH   1   2
BRANCH   1   8
ATOM      8  CD  LYS A   1     -10.712 -33.446  18.697  0.00  0.00    -0.024 C 
BRANCH   8   9
ATOM      9  CE  LYS A   1     -11.952 -34.219  19.106  0.00  0.00    -0.086 C 
BRANCH   9  10
ATOM     10  NZ  LYS A   1     -12.311 -35.229  18.061  0.00  0.00    +0.380 N 
ATOM     11  HZ1 LYS A   1     -13.162 -35.747  18.359  0.00  0.00    -0.089 HD
ATOM     12  HZ2 LYS A   1     -11.522 -35.896  17.940  0.00  0.00    -0.089 HD
ATOM     13  HZ3 LYS A   1     -12.498 -34.743  17.161  0.00  0.00    -0.089 HD
ENDBRANCH   9  10
ENDBRANCH   8   9
ENDBRANCH   1   8
TORSDOF 7
REMARK  Name = ../refined-set-2016/1u1b/1u1b_pocket.pdb
REMARK  185 active torsions:
REMARK  status: ('A' for Active; 'I' for Inactive)
REMARK    1  A    between atoms: _1  and  _3
REMARK    2  A    between atoms: _3  and  _4
REMARK    3  A    between atoms: _3  and  _6
REMARK    4  A    between atoms: _6  and  _7
REMARK    5  A    between atoms: _7  and  _8
REMARK    6  A    between atoms: _11  and  _13
REMARK    7  A    between atoms: _13  and  _14
REMARK    8  A    between atoms: _13  and  _16
REMARK    9  A    between atoms: _16  and  _17
REMARK   10  A    between atoms: _20  and  _22
REMARK   11  A    between atoms: _22  and  _23
REMARK   12  A    between atoms: _26  and  _28
REMARK   13  A    between atoms: _28  and  _29
REMARK   14  A    between atoms: _32  and  _34
REMARK   15  A    between atoms: _34  and  _35
REMARK   16  A    between atoms: _34  and  _37
REMARK   17  A    between atoms: _37  and  _38
REMARK   18  A    between atoms: _38  and  _39
REMARK   19  A    between atoms: _39  and  _40
REMARK   20  A    between atoms: _40  and  _41
REMARK   21  A    between atoms: _45  and  _47
REMARK   22  A    between atoms: _47  and  _48
REMARK   23  A    between atoms: _47  and  _50
REMARK   24  A    between atoms: _50  and  _51
REMARK   25  A    between atoms: _57  and  _59
REMARK   26  A    between atoms: _59  and  _60
REMARK   27  A    between atoms: _59  and  _62
REMARK   28  A    between atoms: _62  and  _63
REMARK   29  A    between atoms: _63  and  _64
REMARK   30  A    between atoms: _64  and  _65
REMARK   31  A    between atoms: _74  and  _76
REMARK   32  A    between atoms: _76  and  _77
REMARK   33  A    between atoms: _76  and  _79
REMARK   34  A    between atoms: _79  and  _80
REMARK   35  A    between atoms: _80  and  _81
REMARK   36  A    between atoms: _86  and  _88
REMARK   37  A    between atoms: _88  and  _89
REMARK   38  A    between atoms: _88  and  _91
REMARK   39  A    between atoms: _91  and  _92
REMARK   40  A    between atoms: _97  and  _99
REMARK   41  A    between atoms: _99  and  _100
REMARK   42  A    between atoms: _99  and  _102
REMARK   43  A    between atoms: _102  and  _103
REMARK   44  A    between atoms: _103  and  _104
REMARK   45  A    between atoms: _106  and  _108
REMARK   46  A    between atoms: _108  and  _109
REMARK   47  A    between atoms: _108  and  _111
REMARK   48  A    between atoms: _111  and  _112
REMARK   49  A    between atoms: _115  and  _117
REMARK   50  A    between atoms: _117  and  _118
REMARK   51  A    between atoms: _117  and  _120
REMARK   52  A    between atoms: _120  and  _121
REMARK   53  A    between atoms: _121  and  _122
REMARK   54  A    between atoms: _122  and  _123
REMARK   55  A    between atoms: _132  and  _134
REMARK   56  A    between atoms: _134  and  _135
REMARK   57  A    between atoms: _134  and  _137
REMARK   58  A    between atoms: _137  and  _138
REMARK   59  A    between atoms: _138  and  _139
REMARK   60  A    between atoms: _139  and  _140
REMARK   61  A    between atoms: _140  and  _141
REMARK   62  A    between atoms: _146  and  _147
REMARK   63  A    between atoms: _152  and  _154
REMARK   64  A    between atoms: _154  and  _155
REMARK   65  A    between atoms: _154  and  _157
REMARK   66  A    between atoms: _160  and  _162
REMARK   67  A    between atoms: _162  and  _163
REMARK   68  A    between atoms: _162  and  _165
REMARK   69  A    between atoms: _165  and  _166
REMARK   70  A    between atoms: _171  and  _173
REMARK   71  A    between atoms: _173  and  _174
REMARK   72  A    between atoms: _173  and  _176
REMARK   73  A    between atoms: _176  and  _177
REMARK   74  A    between atoms: _180  and  _182
REMARK   75  A    between atoms: _182  and  _183
REMARK   76  A    between atoms: _182  and  _185
REMARK   77  A    between atoms: _185  and  _186
REMARK   78  A    between atoms: _192  and  _194
REMARK   79  A    between atoms: _194  and  _195
REMARK   80  A    between atoms: _194  and  _197
REMARK   81  A    between atoms: _200  and  _202
REMARK   82  A    between atoms: _202  and  _203
REMARK   83  A    between atoms: _202  and  _205
REMARK   84  A    between atoms: _208  and  _210
REMARK   85  A    between atoms: _210  and  _211
REMARK   86  A    between atoms: _214  and  _216
REMARK   87  A    between atoms: _223  and  _226
REMARK   88  A    between atoms: _226  and  _227
REMARK   89  A    between atoms: _227  and  _228
REMARK   90  A    between atoms: _228  and  _229
REMARK   91  A    between atoms: _229  and  _230
REMARK   92  A    between atoms: _236  and  _239
REMARK   93  A    between atoms: _239  and  _240
REMARK   94  A    between atoms: _252  and  _255
REMARK   95  A    between atoms: _255  and  _256
REMARK   96  A    between atoms: _256  and  _257
REMARK   97  A    between atoms: _264  and  _267
REMARK   98  A    between atoms: _267  and  _268
REMARK   99  A    between atoms: _273  and  _276
REMARK  100  A    between atoms: _276  and  _277
REMARK  101  A    between atoms: _284  and  _285
REMARK  102  A    between atoms: _289  and  _291
REMARK  103  A    between atoms: _291  and  _292
REMARK  104  A    between atoms: _291  and  _294
REMARK  105  A    between atoms: _294  and  _295
REMARK  106  A    between atoms: _300  and  _301
REMARK  107  A    between atoms: _303  and  _305
REMARK  108  A    between atoms: _305  and  _306
REMARK  109  A    between atoms: _305  and  _308
REMARK  110  A    between atoms: _308  and  _309
REMARK  111  A    between atoms: _312  and  _314
REMARK  112  A    between atoms: _314  and  _315
REMARK  113  A    between atoms: _314  and  _317
REMARK  114  A    between atoms: _317  and  _318
REMARK  115  A    between atoms: _321  and  _323
REMARK  116  A    between atoms: _323  and  _324
REMARK  117  A    between atoms: _323  and  _326
REMARK  118  A    between atoms: _326  and  _327
REMARK  119  A    between atoms: _330  and  _332
REMARK  120  A    between atoms: _332  and  _333
REMARK  121  A    between atoms: _332  and  _335
REMARK  122  A    between atoms: _337  and  _339
REMARK  123  A    between atoms: _339  and  _340
REMARK  124  A    between atoms: _339  and  _342
REMARK  125  A    between atoms: _342  and  _343
REMARK  126  A    between atoms: _343  and  _344
REMARK  127  A    between atoms: _344  and  _345
REMARK  128  A    between atoms: _354  and  _356
REMARK  129  A    between atoms: _356  and  _357
REMARK  130  A    between atoms: _356  and  _359
REMARK  131  A    between atoms: _359  and  _360
REMARK  132  A    between atoms: _360  and  _361
REMARK  133  A    between atoms: _361  and  _362
REMARK  134  A    between atoms: _362  and  _363
REMARK  135  A    between atoms: _367  and  _369
REMARK  136  A    between atoms: _369  and  _370
REMARK  137  A    between atoms: _369  and  _372
REMARK  138  A    between atoms: _372  and  _373
REMARK  139  A    between atoms: _376  and  _378
REMARK  140  A    between atoms: _378  and  _379
REMARK  141  A    between atoms: _378  and  _381
REMARK  142  A    between atoms: _381  and  _382
REMARK  143  A    between atoms: _385  and  _387
REMARK  144  A    between atoms: _387  and  _388
REMARK  145  A    between atoms: _387  and  _390
REMARK  146  A    between atoms: _393  and  _395
REMARK  147  A    between atoms: _395  and  _396
REMARK  148  A    between atoms: _399  and  _401
REMARK  149  A    between atoms: _401  and  _402
REMARK  150  A    between atoms: _401  and  _404
REMARK  151  A    between atoms: _406  and  _408
REMARK  152  A    between atoms: _408  and  _409
REMARK  153  A    between atoms: _408  and  _411
REMARK  154  A    between atoms: _411  and  _412
REMARK  155  A    between atoms: _412  and  _413
REMARK  156  A    between atoms: _416  and  _418
REMARK  157  A    between atoms: _418  and  _419
REMARK  158  A    between atoms: _421  and  _423
REMARK  159  A    between atoms: _423  and  _424
REMARK  160  A    between atoms: _423  and  _426
REMARK  161  A    between atoms: _430  and  _431
REMARK  162  A    between atoms: _436  and  _438
REMARK  163  A    between atoms: _438  and  _439
REMARK  164  A    between atoms: _438  and  _441
REMARK  165  A    between atoms: _444  and  _446
REMARK  166  A    between atoms: _446  and  _447
REMARK  167  A    between atoms: _446  and  _449
REMARK  168  A    between atoms: _449  and  _450
REMARK  169  A    between atoms: _455  and  _457
REMARK  170  A    between atoms: _457  and  _458
REMARK  171  A    between atoms: _457  and  _460
REMARK  172  A    between atoms: _460  and  _461
REMARK  173  A    between atoms: _467  and  _469
REMARK  174  A    between atoms: _469  and  _470
REMARK  175  A    between atoms: _469  and  _472
REMARK  176  A    between atoms: _472  and  _473
REMARK  177  A    between atoms: _476  and  _478
REMARK  178  A    between atoms: _478  and  _479
REMARK  179  A    between atoms: _482  and  _484
REMARK  180  A    between atoms: _484  and  _485
REMARK  181  A    between atoms: _484  and  _487
REMARK  182  A    between atoms: _487  and  _488
REMARK  183  A    between atoms: _490  and  _492
REMARK  184  A    between atoms: _492  and  _493
REMARK  185  A    between atoms: _492  and  _495
REMARK                            x       y       z     vdW  Elec       q    Type
REMARK                         _______ _______ _______ _____ _____    ______ ____
ROOT
ATOM      1  C   VAL A   3     -21.761 -23.181  18.454  0.00  0.00    +0.241 C 
ATOM      2  N   ALA A   4     -23.078 -23.281  18.267  0.00  0.00    -0.297 N 
ATOM      3  H   ALA A   4     -23.558 -24.164  18.533  0.00  0.00    +0.150 HD
ATOM      4  O   VAL A   3     -21.088 -22.203  18.099  0.00  0.00    -0.273 OA
ENDROOT
BRANCH   2   5
ATOM      5  CA  ALA A   4     -23.864 -22.196  17.703  0.00  0.00    +0.149 C 
ATOM      6  CB  ALA A   4     -24.976 -22.733  16.779  0.00  0.00    +0.031 C 
BRANCH   5   7
ATOM      7  C   ALA A   4     -24.483 -21.480  18.890  0.00  0.00    +0.241 C 
ATOM      8  O   ALA A   4     -24.950 -22.123  19.839  0.00  0.00    -0.273 OA
ATOM      9  N   CYS A   5     -24.496 -20.156  18.842  0.00  0.00    -0.296 N 
ATOM     10  H   CYS A   5     -24.096 -19.670  18.014  0.00  0.00    +0.150 HD
BRANCH   9  11
ATOM     11  CA  CYS A   5     -25.059 -19.374  19.926  0.00  0.00    +0.160 C 
BRANCH  11  12
ATOM     12  C   CYS A   5     -26.232 -18.569  19.387  0.00  0.00    +0.242 C 
ATOM     13  N   GLU A   6     -27.189 -18.290  20.255  0.00  0.00    -0.297 N 
ATOM     14  H   GLU A   6     -27.100 -18.608  21.241  0.00  0.00    +0.150 HD
ATOM     15  O   CYS A   5     -26.255 -18.187  18.213  0.00  0.00    -0.273 OA
BRANCH  13  16
ATOM     16  CA  GLU A   6     -28.357 -17.547  19.843  0.00  0.00    +0.149 C 
BRANCH  16  17
ATOM     17  C   GLU A   6     -29.018 -17.048  21.104  0.00  0.00    +0.241 C 
ATOM     18  O   GLU A   6     -28.704 -17.526  22.196  0.00  0.00    -0.273 OA
ATOM     19  N   GLY A   7     -29.918 -16.082  20.961  0.00  0.00    -0.296 N 
ATOM     20  H   GLY A   7     -30.119 -15.695  20.017  0.00  0.00    +0.150 HD
BRANCH  19  21
ATOM     21  CA  GLY A   7     -30.621 -15.566  22.120  0.00  0.00    +0.163 C 
BRANCH  21  22
ATOM     22  C   GLY A   7     -30.037 -14.301  22.703  0.00  0.00    +0.229 C 
ATOM     23  O   GLY A   7     -29.028 -13.767  22.229  0.00  0.00    -0.286 OA
ENDBRANCH  21  22
ENDBRANCH  19  21
ENDBRANCH  16  17
BRANCH  16  24
ATOM     24  CB  GLU A   6     -29.302 -18.488  19.101  0.00  0.00    +0.041 C 
BRANCH  24  25
ATOM     25  CG  GLU A   6     -30.240 -17.832  18.131  0.00  0.00    +0.116 C 
BRANCH  25  26
ATOM     26  CD  GLU A   6     -31.156 -18.853  17.484  0.00  0.00    +0.365 C 
ATOM     27  OE2 GLU A   6     -32.376 -18.586  17.386  0.00  0.00    -0.246 OA
ATOM     28  OE1 GLU A   6     -30.651 -19.922  17.075  0.00  0.00    -0.246 OA
ENDBRANCH  25  26
ENDBRANCH  24  25
ENDBRANCH  16  24
ENDBRANCH  13  16
ENDBRANCH  11  12
BRANCH  11  29
ATOM     29  CB  CYS A   5     -24.000 -18.429  20.494  0.00  0.00    +0.098 C 
ATOM     30  SG  CYS A   5     -22.469 -19.272  21.011  0.00  0.00    -0.080 S 
ENDBRANCH  11  29
ENDBRANCH   9  11
ENDBRANCH   5   7
ENDBRANCH   2   5
BRANCH   1  31
ATOM     31  CA  VAL A   3     -21.089 -24.374  19.121  0.00  0.00    +0.149 C 
BRANCH  31  33
ATOM     32  C   ILE A   2     -19.075 -25.445  18.290  0.00  0.00    +0.241 C 
ATOM     33  N   VAL A   3     -19.672 -24.379  18.810  0.00  0.00    -0.297 N 
ATOM     34  H   VAL A   3     -19.109 -23.525  18.999  0.00  0.00    +0.150 HD
ATOM     35  O   ILE A   2     -19.672 -26.496  18.056  0.00  0.00    -0.273 OA
BRANCH  32  36
ATOM     36  CA  ILE A   2     -17.578 -25.313  18.014  0.00  0.00    +0.148 C 
BRANCH  36  39
ATOM     37  C   ILE A   1     -15.935 -26.050  19.640  0.00  0.00    +0.238 C 
ATOM     38  O   ILE A   1     -15.467 -24.919  19.763  0.00  0.00    -0.274 OA
ATOM     39  N   ILE A   2     -16.934 -26.331  18.818  0.00  0.00    -0.297 N 
ATOM     40  H   ILE A   2     -17.267 -27.314  18.747  0.00  0.00    +0.150 HD
BRANCH  37  41
ATOM     41  CA  ILE A   1     -15.377 -27.231  20.434  0.00  0.00    +0.145 C 
BRANCH  41  42
ATOM     42  N   ILE A   1     -13.975 -26.973  20.721  0.00  0.00    -0.238 NA
ATOM     43  H   ILE A   1     -13.714 -26.195  21.360  0.00  0.00    +0.142 HD
ENDBRANCH  41  42
BRANCH  41  44
ATOM     44  CB  ILE A   1     -16.226 -27.420  21.732  0.00  0.00    +0.025 C 
ATOM     45  CG2 ILE A   1     -15.695 -28.604  22.508  0.00  0.00    +0.002 C 
BRANCH  44  46
ATOM     46  CG1 ILE A   1     -16.191 -26.156  22.597  0.00  0.00    +0.002 C 
ATOM     47  CD1 ILE A   1     -17.186 -26.179  23.766  0.00  0.00    +0.000 C 
ENDBRANCH  44  46
ENDBRANCH  41  44
ENDBRANCH  37  41
ENDBRANCH  36  39
BRANCH  36  48
ATOM     48  CB  ILE A   2     -17.297 -25.550  16.512  0.00  0.00    +0.027 C 
ATOM     49  CG2 ILE A   2     -18.009 -24.506  15.677  0.00  0.00    +0.002 C 
BRANCH  48  50
ATOM     50  CG1 ILE A   2     -15.788 -25.517  16.256  0.00  0.00    +0.002 C 
ATOM     51  CD1 ILE A   2     -15.402 -25.876  14.841  0.00  0.00    +0.000 C 
ENDBRANCH  48  50
ENDBRANCH  36  48
ENDBRANCH  32  36
ENDBRANCH  31  33
BRANCH  31  52
ATOM     52  CB  VAL A   3     -21.311 -24.255  20.633  0.00  0.00    +0.027 C 
ATOM     53  CG2 VAL A   3     -20.652 -25.444  21.359  0.00  0.00    +0.002 C 
ATOM     54  CG1 VAL A   3     -20.733 -22.937  21.128  0.00  0.00    +0.002 C 
ENDBRANCH  31  52
ENDBRANCH   1  31
TORSDOF 23
REMARK  Name = ../refined-set-2016/1u1b/1u1b_pocket.pdb
REMARK  185 active torsions:
REMARK  status: ('A' for Active; 'I' for Inactive)
REMARK    1  A    between atoms: _1  and  _3
REMARK    2  A    between atoms: _3  and  _4
REMARK    3  A    between atoms: _3  and  _6
REMARK    4  A    between atoms: _6  and  _7
REMARK    5  A    between atoms: _7  and  _8
REMARK    6  A    between atoms: _11  and  _13
REMARK    7  A    between atoms: _13  and  _14
REMARK    8  A    between atoms: _13  and  _16
REMARK    9  A    between atoms: _16  and  _17
REMARK   10  A    between atoms: _20  and  _22
REMARK   11  A    between atoms: _22  and  _23
REMARK   12  A    between atoms: _26  and  _28
REMARK   13  A    between atoms: _28  and  _29
REMARK   14  A    between atoms: _32  and  _34
REMARK   15  A    between atoms: _34  and  _35
REMARK   16  A    between atoms: _34  and  _37
REMARK   17  A    between atoms: _37  and  _38
REMARK   18  A    between atoms: _38  and  _39
REMARK   19  A    between atoms: _39  and  _40
REMARK   20  A    between atoms: _40  and  _41
REMARK   21  A    between atoms: _45  and  _47
REMARK   22  A    between atoms: _47  and  _48
REMARK   23  A    between atoms: _47  and  _50
REMARK   24  A    between atoms: _50  and  _51
REMARK   25  A    between atoms: _57  and  _59
REMARK   26  A    between atoms: _59  and  _60
REMARK   27  A    between atoms: _59  and  _62
REMARK   28  A    between atoms: _62  and  _63
REMARK   29  A    between atoms: _63  and  _64
REMARK   30  A    between atoms: _64  and  _65
REMARK   31  A    between atoms: _74  and  _76
REMARK   32  A    between atoms: _76  and  _77
REMARK   33  A    between atoms: _76  and  _79
REMARK   34  A    between atoms: _79  and  _80
REMARK   35  A    between atoms: _80  and  _81
REMARK   36  A    between atoms: _86  and  _88
REMARK   37  A    between atoms: _88  and  _89
REMARK   38  A    between atoms: _88  and  _91
REMARK   39  A    between atoms: _91  and  _92
REMARK   40  A    between atoms: _97  and  _99
REMARK   41  A    between atoms: _99  and  _100
REMARK   42  A    between atoms: _99  and  _102
REMARK   43  A    between atoms: _102  and  _103
REMARK   44  A    between atoms: _103  and  _104
REMARK   45  A    between atoms: _106  and  _108
REMARK   46  A    between atoms: _108  and  _109
REMARK   47  A    between atoms: _108  and  _111
REMARK   48  A    between atoms: _111  and  _112
REMARK   49  A    between atoms: _115  and  _117
REMARK   50  A    between atoms: _117  and  _118
REMARK   51  A    between atoms: _117  and  _120
REMARK   52  A    between atoms: _120  and  _121
REMARK   53  A    between atoms: _121  and  _122
REMARK   54  A    between atoms: _122  and  _123
REMARK   55  A    between atoms: _132  and  _134
REMARK   56  A    between atoms: _134  and  _135
REMARK   57  A    between atoms: _134  and  _137
REMARK   58  A    between atoms: _137  and  _138
REMARK   59  A    between atoms: _138  and  _139
REMARK   60  A    between atoms: _139  and  _140
REMARK   61  A    between atoms: _140  and  _141
REMARK   62  A    between atoms: _146  and  _147
REMARK   63  A    between atoms: _152  and  _154
REMARK   64  A    between atoms: _154  and  _155
REMARK   65  A    between atoms: _154  and  _157
REMARK   66  A    between atoms: _160  and  _162
REMARK   67  A    between atoms: _162  and  _163
REMARK   68  A    between atoms: _162  and  _165
REMARK   69  A    between atoms: _165  and  _166
REMARK   70  A    between atoms: _171  and  _173
REMARK   71  A    between atoms: _173  and  _174
REMARK   72  A    between atoms: _173  and  _176
REMARK   73  A    between atoms: _176  and  _177
REMARK   74  A    between atoms: _180  and  _182
REMARK   75  A    between atoms: _182  and  _183
REMARK   76  A    between atoms: _182  and  _185
REMARK   77  A    between atoms: _185  and  _186
REMARK   78  A    between atoms: _192  and  _194
REMARK   79  A    between atoms: _194  and  _195
REMARK   80  A    between atoms: _194  and  _197
REMARK   81  A    between atoms: _200  and  _202
REMARK   82  A    between atoms: _202  and  _203
REMARK   83  A    between atoms: _202  and  _205
REMARK   84  A    between atoms: _208  and  _210
REMARK   85  A    between atoms: _210  and  _211
REMARK   86  A    between atoms: _214  and  _216
REMARK   87  A    between atoms: _223  and  _226
REMARK   88  A    between atoms: _226  and  _227
REMARK   89  A    between atoms: _227  and  _228
REMARK   90  A    between atoms: _228  and  _229
REMARK   91  A    between atoms: _229  and  _230
REMARK   92  A    between atoms: _236  and  _239
REMARK   93  A    between atoms: _239  and  _240
REMARK   94  A    between atoms: _252  and  _255
REMARK   95  A    between atoms: _255  and  _256
REMARK   96  A    between atoms: _256  and  _257
REMARK   97  A    between atoms: _264  and  _267
REMARK   98  A    between atoms: _267  and  _268
REMARK   99  A    between atoms: _273  and  _276
REMARK  100  A    between atoms: _276  and  _277
REMARK  101  A    between atoms: _284  and  _285
REMARK  102  A    between atoms: _289  and  _291
REMARK  103  A    between atoms: _291  and  _292
REMARK  104  A    between atoms: _291  and  _294
REMARK  105  A    between atoms: _294  and  _295
REMARK  106  A    between atoms: _300  and  _301
REMARK  107  A    between atoms: _303  and  _305
REMARK  108  A    between atoms: _305  and  _306
REMARK  109  A    between atoms: _305  and  _308
REMARK  110  A    between atoms: _308  and  _309
REMARK  111  A    between atoms: _312  and  _314
REMARK  112  A    between atoms: _314  and  _315
REMARK  113  A    between atoms: _314  and  _317
REMARK  114  A    between atoms: _317  and  _318
REMARK  115  A    between atoms: _321  and  _323
REMARK  116  A    between atoms: _323  and  _324
REMARK  117  A    between atoms: _323  and  _326
REMARK  118  A    between atoms: _326  and  _327
REMARK  119  A    between atoms: _330  and  _332
REMARK  120  A    between atoms: _332  and  _333
REMARK  121  A    between atoms: _332  and  _335
REMARK  122  A    between atoms: _337  and  _339
REMARK  123  A    between atoms: _339  and  _340
REMARK  124  A    between atoms: _339  and  _342
REMARK  125  A    between atoms: _342  and  _343
REMARK  126  A    between atoms: _343  and  _344
REMARK  127  A    between atoms: _344  and  _345
REMARK  128  A    between atoms: _354  and  _356
REMARK  129  A    between atoms: _356  and  _357
REMARK  130  A    between atoms: _356  and  _359
REMARK  131  A    between atoms: _359  and  _360
REMARK  132  A    between atoms: _360  and  _361
REMARK  133  A    between atoms: _361  and  _362
REMARK  134  A    between atoms: _362  and  _363
REMARK  135  A    between atoms: _367  and  _369
REMARK  136  A    between atoms: _369  and  _370
REMARK  137  A    between atoms: _369  and  _372
REMARK  138  A    between atoms: _372  and  _373
REMARK  139  A    between atoms: _376  and  _378
REMARK  140  A    between atoms: _378  and  _379
REMARK  141  A    between atoms: _378  and  _381
REMARK  142  A    between atoms: _381  and  _382
REMARK  143  A    between atoms: _385  and  _387
REMARK  144  A    between atoms: _387  and  _388
REMARK  145  A    between atoms: _387  and  _390
REMARK  146  A    between atoms: _393  and  _395
REMARK  147  A    between atoms: _395  and  _396
REMARK  148  A    between atoms: _399  and  _401
REMARK  149  A    between atoms: _401  and  _402
REMARK  150  A    between atoms: _401  and  _404
REMARK  151  A    between atoms: _406  and  _408
REMARK  152  A    between atoms: _408  and  _409
REMARK  153  A    between atoms: _408  and  _411
REMARK  154  A    between atoms: _411  and  _412
REMARK  155  A    between atoms: _412  and  _413
REMARK  156  A    between atoms: _416  and  _418
REMARK  157  A    between atoms: _418  and  _419
REMARK  158  A    between atoms: _421  and  _423
REMARK  159  A    between atoms: _423  and  _424
REMARK  160  A    between atoms: _423  and  _426
REMARK  161  A    between atoms: _430  and  _431
REMARK  162  A    between atoms: _436  and  _438
REMARK  163  A    between atoms: _438  and  _439
REMARK  164  A    between atoms: _438  and  _441
REMARK  165  A    between atoms: _444  and  _446
REMARK  166  A    between atoms: _446  and  _447
REMARK  167  A    between atoms: _446  and  _449
REMARK  168  A    between atoms: _449  and  _450
REMARK  169  A    between atoms: _455  and  _457
REMARK  170  A    between atoms: _457  and  _458
REMARK  171  A    between atoms: _457  and  _460
REMARK  172  A    between atoms: _460  and  _461
REMARK  173  A    between atoms: _467  and  _469
REMARK  174  A    between atoms: _469  and  _470
REMARK  175  A    between atoms: _469  and  _472
REMARK  176  A    between atoms: _472  and  _473
REMARK  177  A    between atoms: _476  and  _478
REMARK  178  A    between atoms: _478  and  _479
REMARK  179  A    between atoms: _482  and  _484
REMARK  180  A    between atoms: _484  and  _485
REMARK  181  A    between atoms: _484  and  _487
REMARK  182  A    between atoms: _487  and  _488
REMARK  183  A    between atoms: _490  and  _492
REMARK  184  A    between atoms: _492  and  _493
REMARK  185  A    between atoms: _492  and  _495
REMARK                            x       y       z     vdW  Elec       q    Type
REMARK                         _______ _______ _______ _____ _____    ______ ____
ROOT
ATOM      1  CA  PHE A   5     -23.141 -28.354  19.442  0.00  0.00    +0.153 C 
ENDROOT
BRANCH   1   2
ATOM      2  C   PHE A   5     -22.865 -28.669  17.974  0.00  0.00    +0.241 C 
ATOM      3  O   PHE A   5     -23.484 -29.559  17.396  0.00  0.00    -0.273 OA
ATOM      4  N   ASP A   6     -21.930 -27.941  17.368  0.00  0.00    -0.297 N 
ATOM      5  H   ASP A   6     -21.399 -27.229  17.910  0.00  0.00    +0.150 HD
BRANCH   4   6
ATOM      6  CA  ASP A   6     -21.643 -28.133  15.949  0.00  0.00    +0.160 C 
BRANCH   6   7
ATOM      7  C   ASP A   6     -20.544 -29.126  15.600  0.00  0.00    +0.241 C 
ATOM      8  N   ALA A   7     -19.409 -29.055  16.296  0.00  0.00    -0.297 N 
ATOM      9  H   ALA A   7     -19.311 -28.354  17.058  0.00  0.00    +0.150 HD
ATOM     10  O   ASP A   6     -20.729 -29.965  14.717  0.00  0.00    -0.273 OA
BRANCH   8  11
ATOM     11  CA  ALA A   7     -18.309 -29.954  15.992  0.00  0.00    +0.149 C 
ATOM     12  CB  ALA A   7     -17.782 -29.653  14.585  0.00  0.00    +0.031 C 
BRANCH  11  13
ATOM     13  C   ALA A   7     -17.186 -29.802  16.987  0.00  0.00    +0.241 C 
ATOM     14  O   ALA A   7     -17.254 -28.976  17.876  0.00  0.00    -0.273 OA
ATOM     15  N   SER A   8     -16.163 -30.631  16.840  0.00  0.00    -0.295 N 
ATOM     16  H   SER A   8     -16.210 -31.363  16.103  0.00  0.00    +0.150 HD
BRANCH  15  17
ATOM     17  CA  SER A   8     -14.979 -30.549  17.676  0.00  0.00    +0.178 C 
BRANCH  17  18
ATOM     18  C   SER A   8     -13.812 -30.589  16.690  0.00  0.00    +0.243 C 
ATOM     19  N   VAL A   9     -12.735 -29.877  16.997  0.00  0.00    -0.295 N 
ATOM     20  H   VAL A   9     -12.716 -29.333  17.883  0.00  0.00    +0.150 HD
ATOM     21  O   SER A   8     -13.899 -31.244  15.649  0.00  0.00    -0.273 OA
BRANCH  19  22
ATOM     22  CA  VAL A   9     -11.575 -29.846  16.109  0.00  0.00    +0.176 C 
BRANCH  22  23
ATOM     23  CB  VAL A   9     -11.637 -28.629  15.173  0.00  0.00    +0.029 C 
ATOM     24  CG2 VAL A   9     -11.705 -27.354  15.992  0.00  0.00    +0.002 C 
ATOM     25  CG1 VAL A   9     -12.850 -28.733  14.267  0.00  0.00    +0.002 C 
ENDBRANCH  22  23
BRANCH  22  26
ATOM     26  C   VAL A   9     -10.269 -29.784  16.887  0.00  0.00    +0.382 C 
ATOM     27  OXT VAL A   9     -10.285 -29.223  18.002  0.00  0.00    -0.244 OA
ATOM     28  O   VAL A   9      -9.245 -30.279  16.368  0.00  0.00    -0.244 OA
ENDBRANCH  22  26
ENDBRANCH  19  22
ENDBRANCH  17  18
BRANCH  17  29
ATOM     29  CB  SER A   8     -14.907 -31.724  18.647  0.00  0.00    +0.166 C 
BRANCH  29  30
ATOM     30  OG  SER A   8     -14.871 -32.952  17.954  0.00  0.00    -0.380 OA
ATOM     31  H   SER A   8     -15.689 -33.044  17.404  0.00  0.00    +0.211 HD
ENDBRANCH  29  30
ENDBRANCH  17  29
ENDBRANCH  15  17
ENDBRANCH  11  13
ENDBRANCH   8  11
ENDBRANCH   6   7
BRANCH   6  32
ATOM     32  CB  ASP A   6     -21.339 -26.776  15.297  0.00  0.00    +0.143 C 
BRANCH  32  33
ATOM     33  CG  ASP A   6     -21.720 -26.741  13.817  0.00  0.00    +0.367 C 
ATOM     34  OD2 ASP A   6     -22.900 -27.020  13.499  0.00  0.00    -0.246 OA
ATOM     35  OD1 ASP A   6     -20.844 -26.437  12.982  0.00  0.00    -0.246 OA
ENDBRANCH  32  33
ENDBRANCH   6  32
ENDBRANCH   4   6
ENDBRANCH   1   2
BRANCH   1  37
ATOM     36  C   HIS A   4     -24.867 -26.651  19.433  0.00  0.00    +0.241 C 
ATOM     37  N   PHE A   5     -24.538 -27.931  19.487  0.00  0.00    -0.297 N 
ATOM     38  H   PHE A   5     -25.287 -28.648  19.563  0.00  0.00    +0.150 HD
ATOM     39  O   HIS A   4     -24.028 -25.759  19.374  0.00  0.00    -0.273 OA
BRANCH  36  40
ATOM     40  CA  HIS A   4     -26.357 -26.331  19.469  0.00  0.00    +0.155 C 
BRANCH  40  43
ATOM     41  C   VAL A   3     -27.803 -25.035  20.911  0.00  0.00    +0.241 C 
ATOM     42  O   VAL A   3     -28.751 -25.778  20.698  0.00  0.00    -0.273 OA
ATOM     43  N   HIS A   4     -26.606 -25.221  20.370  0.00  0.00    -0.297 N 
ATOM     44  H   HIS A   4     -25.834 -24.561  20.595  0.00  0.00    +0.150 HD
BRANCH  41  45
ATOM     45  CA  VAL A   3     -27.953 -23.839  21.825  0.00  0.00    +0.149 C 
BRANCH  45  48
ATOM     46  C   PRO A   2     -26.263 -22.749  23.181  0.00  0.00    +0.241 C 
ATOM     47  O   PRO A   2     -26.863 -23.016  24.238  0.00  0.00    -0.273 OA
ATOM     48  N   VAL A   3     -26.699 -23.116  21.980  0.00  0.00    -0.297 N 
ATOM     49  H   VAL A   3     -26.135 -22.883  21.138  0.00  0.00    +0.150 HD
BRANCH  46  55
ATOM     50  C   VAL A   1     -25.712 -19.720  23.737  0.00  0.00    +0.241 C 
ATOM     51  N   PRO A   2     -25.017 -20.822  24.089  0.00  0.00    -0.272 N 
ATOM     52  CD  PRO A   2     -24.133 -20.989  25.256  0.00  0.00    +0.094 C 
ATOM     53  CG  PRO A   2     -23.060 -21.880  24.714  0.00  0.00    +0.024 C 
ATOM     54  CB  PRO A   2     -23.840 -22.855  23.844  0.00  0.00    +0.031 C 
ATOM     55  CA  PRO A   2     -24.941 -21.997  23.210  0.00  0.00    +0.152 C 
ATOM     56  O   VAL A   1     -26.302 -19.647  22.669  0.00  0.00    -0.273 OA
BRANCH  50  57
ATOM     57  CA  VAL A   1     -25.733 -18.537  24.725  0.00  0.00    +0.145 C 
BRANCH  57  58
ATOM     58  CB  VAL A   1     -26.550 -18.931  26.001  0.00  0.00    +0.025 C 
ATOM     59  CG2 VAL A   1     -26.189 -18.005  27.167  0.00  0.00    +0.002 C 
ATOM     60  CG1 VAL A   1     -28.043 -18.809  25.728  0.00  0.00    +0.002 C 
ENDBRANCH  57  58
BRANCH  57  61
ATOM     61  N   VAL A   1     -26.260 -17.295  24.154  0.00  0.00    -0.238 NA
ATOM     62  H   VAL A   1     -27.210 -17.298  23.731  0.00  0.00    +0.142 HD
ENDBRANCH  57  61
ENDBRANCH  50  57
ENDBRANCH  46  55
ENDBRANCH  45  48
BRANCH  45  63
ATOM     63  CB  VAL A   3     -29.058 -22.940  21.252  0.00  0.00    +0.027 C 
ATOM     64  CG2 VAL A   3     -29.339 -21.806  22.203  0.00  0.00    +0.002 C 
ATOM     65  CG1 VAL A   3     -28.655 -22.418  19.891  0.00  0.00    +0.002 C 
ENDBRANCH  45  63
ENDBRANCH  41  45
ENDBRANCH  40  43
BRANCH  40  66
ATOM     66  CB  HIS A   4     -26.891 -25.973  18.068  0.00  0.00    +0.076 C 
BRANCH  66  67
ATOM     67  CG  HIS A   4     -26.272 -26.755  16.953  0.00  0.00    +0.082 A 
ATOM     68  ND1 HIS A   4     -26.686 -28.025  16.607  0.00  0.00    -0.227 NA
ATOM     69  CE1 HIS A   4     -25.959 -28.461  15.591  0.00  0.00    +0.199 A 
ATOM     70  NE2 HIS A   4     -25.090 -27.519  15.262  0.00  0.00    -0.221 NA
ATOM     71  CD2 HIS A   4     -25.264 -26.442  16.100  0.00  0.00    +0.115 A 
ENDBRANCH  66  67
ENDBRANCH  40  66
ENDBRANCH  36  40
ENDBRANCH   1  37
BRANCH   1  72
ATOM     72  CB  PHE A   5     -22.933 -29.585  20.340  0.00  0.00    +0.055 C 
BRANCH  72  73
ATOM     73  CG  PHE A   5     -21.494 -30.016  20.466  0.00  0.00    -0.020 A 
ATOM     74  CD2 PHE A   5     -20.752 -29.683  21.603  0.00  0.00    -0.004 A 
ATOM     75  CE2 PHE A   5     -19.401 -30.029  21.706  0.00  0.00    -0.000 A 
ATOM     76  CZ  PHE A   5     -18.782 -30.720  20.667  0.00  0.00    -0.000 A 
ATOM     77  CE1 PHE A   5     -19.511 -31.063  19.529  0.00  0.00    -0.000 A 
ATOM     78  CD1 PHE A   5     -20.866 -30.709  19.433  0.00  0.00    -0.004 A 
ENDBRANCH  72  73
ENDBRANCH   1  72
TORSDOF 28
REMARK  Name = ../refined-set-2016/1u1b/1u1b_pocket.pdb
REMARK  185 active torsions:
REMARK  status: ('A' for Active; 'I' for Inactive)
REMARK    1  A    between atoms: _1  and  _3
REMARK    2  A    between atoms: _3  and  _4
REMARK    3  A    between atoms: _3  and  _6
REMARK    4  A    between atoms: _6  and  _7
REMARK    5  A    between atoms: _7  and  _8
REMARK    6  A    between atoms: _11  and  _13
REMARK    7  A    between atoms: _13  and  _14
REMARK    8  A    between atoms: _13  and  _16
REMARK    9  A    between atoms: _16  and  _17
REMARK   10  A    between atoms: _20  and  _22
REMARK   11  A    between atoms: _22  and  _23
REMARK   12  A    between atoms: _26  and  _28
REMARK   13  A    between atoms: _28  and  _29
REMARK   14  A    between atoms: _32  and  _34
REMARK   15  A    between atoms: _34  and  _35
REMARK   16  A    between atoms: _34  and  _37
REMARK   17  A    between atoms: _37  and  _38
REMARK   18  A    between atoms: _38  and  _39
REMARK   19  A    between atoms: _39  and  _40
REMARK   20  A    between atoms: _40  and  _41
REMARK   21  A    between atoms: _45  and  _47
REMARK   22  A    between atoms: _47  and  _48
REMARK   23  A    between atoms: _47  and  _50
REMARK   24  A    between atoms: _50  and  _51
REMARK   25  A    between atoms: _57  and  _59
REMARK   26  A    between atoms: _59  and  _60
REMARK   27  A    between atoms: _59  and  _62
REMARK   28  A    between atoms: _62  and  _63
REMARK   29  A    between atoms: _63  and  _64
REMARK   30  A    between atoms: _64  and  _65
REMARK   31  A    between atoms: _74  and  _76
REMARK   32  A    between atoms: _76  and  _77
REMARK   33  A    between atoms: _76  and  _79
REMARK   34  A    between atoms: _79  and  _80
REMARK   35  A    between atoms: _80  and  _81
REMARK   36  A    between atoms: _86  and  _88
REMARK   37  A    between atoms: _88  and  _89
REMARK   38  A    between atoms: _88  and  _91
REMARK   39  A    between atoms: _91  and  _92
REMARK   40  A    between atoms: _97  and  _99
REMARK   41  A    between atoms: _99  and  _100
REMARK   42  A    between atoms: _99  and  _102
REMARK   43  A    between atoms: _102  and  _103
REMARK   44  A    between atoms: _103  and  _104
REMARK   45  A    between atoms: _106  and  _108
REMARK   46  A    between atoms: _108  and  _109
REMARK   47  A    between atoms: _108  and  _111
REMARK   48  A    between atoms: _111  and  _112
REMARK   49  A    between atoms: _115  and  _117
REMARK   50  A    between atoms: _117  and  _118
REMARK   51  A    between atoms: _117  and  _120
REMARK   52  A    between atoms: _120  and  _121
REMARK   53  A    between atoms: _121  and  _122
REMARK   54  A    between atoms: _122  and  _123
REMARK   55  A    between atoms: _132  and  _134
REMARK   56  A    between atoms: _134  and  _135
REMARK   57  A    between atoms: _134  and  _137
REMARK   58  A    between atoms: _137  and  _138
REMARK   59  A    between atoms: _138  and  _139
REMARK   60  A    between atoms: _139  and  _140
REMARK   61  A    between atoms: _140  and  _141
REMARK   62  A    between atoms: _146  and  _147
REMARK   63  A    between atoms: _152  and  _154
REMARK   64  A    between atoms: _154  and  _155
REMARK   65  A    between atoms: _154  and  _157
REMARK   66  A    between atoms: _160  and  _162
REMARK   67  A    between atoms: _162  and  _163
REMARK   68  A    between atoms: _162  and  _165
REMARK   69  A    between atoms: _165  and  _166
REMARK   70  A    between atoms: _171  and  _173
REMARK   71  A    between atoms: _173  and  _174
REMARK   72  A    between atoms: _173  and  _176
REMARK   73  A    between atoms: _176  and  _177
REMARK   74  A    between atoms: _180  and  _182
REMARK   75  A    between atoms: _182  and  _183
REMARK   76  A    between atoms: _182  and  _185
REMARK   77  A    between atoms: _185  and  _186
REMARK   78  A    between atoms: _192  and  _194
REMARK   79  A    between atoms: _194  and  _195
REMARK   80  A    between atoms: _194  and  _197
REMARK   81  A    between atoms: _200  and  _202
REMARK   82  A    between atoms: _202  and  _203
REMARK   83  A    between atoms: _202  and  _205
REMARK   84  A    between atoms: _208  and  _210
REMARK   85  A    between atoms: _210  and  _211
REMARK   86  A    between atoms: _214  and  _216
REMARK   87  A    between atoms: _223  and  _226
REMARK   88  A    between atoms: _226  and  _227
REMARK   89  A    between atoms: _227  and  _228
REMARK   90  A    between atoms: _228  and  _229
REMARK   91  A    between atoms: _229  and  _230
REMARK   92  A    between atoms: _236  and  _239
REMARK   93  A    between atoms: _239  and  _240
REMARK   94  A    between atoms: _252  and  _255
REMARK   95  A    between atoms: _255  and  _256
REMARK   96  A    between atoms: _256  and  _257
REMARK   97  A    between atoms: _264  and  _267
REMARK   98  A    between atoms: _267  and  _268
REMARK   99  A    between atoms: _273  and  _276
REMARK  100  A    between atoms: _276  and  _277
REMARK  101  A    between atoms: _284  and  _285
REMARK  102  A    between atoms: _289  and  _291
REMARK  103  A    between atoms: _291  and  _292
REMARK  104  A    between atoms: _291  and  _294
REMARK  105  A    between atoms: _294  and  _295
REMARK  106  A    between atoms: _300  and  _301
REMARK  107  A    between atoms: _303  and  _305
REMARK  108  A    between atoms: _305  and  _306
REMARK  109  A    between atoms: _305  and  _308
REMARK  110  A    between atoms: _308  and  _309
REMARK  111  A    between atoms: _312  and  _314
REMARK  112  A    between atoms: _314  and  _315
REMARK  113  A    between atoms: _314  and  _317
REMARK  114  A    between atoms: _317  and  _318
REMARK  115  A    between atoms: _321  and  _323
REMARK  116  A    between atoms: _323  and  _324
REMARK  117  A    between atoms: _323  and  _326
REMARK  118  A    between atoms: _326  and  _327
REMARK  119  A    between atoms: _330  and  _332
REMARK  120  A    between atoms: _332  and  _333
REMARK  121  A    between atoms: _332  and  _335
REMARK  122  A    between atoms: _337  and  _339
REMARK  123  A    between atoms: _339  and  _340
REMARK  124  A    between atoms: _339  and  _342
REMARK  125  A    between atoms: _342  and  _343
REMARK  126  A    between atoms: _343  and  _344
REMARK  127  A    between atoms: _344  and  _345
REMARK  128  A    between atoms: _354  and  _356
REMARK  129  A    between atoms: _356  and  _357
REMARK  130  A    between atoms: _356  and  _359
REMARK  131  A    between atoms: _359  and  _360
REMARK  132  A    between atoms: _360  and  _361
REMARK  133  A    between atoms: _361  and  _362
REMARK  134  A    between atoms: _362  and  _363
REMARK  135  A    between atoms: _367  and  _369
REMARK  136  A    between atoms: _369  and  _370
REMARK  137  A    between atoms: _369  and  _372
REMARK  138  A    between atoms: _372  and  _373
REMARK  139  A    between atoms: _376  and  _378
REMARK  140  A    between atoms: _378  and  _379
REMARK  141  A    between atoms: _378  and  _381
REMARK  142  A    between atoms: _381  and  _382
REMARK  143  A    between atoms: _385  and  _387
REMARK  144  A    between atoms: _387  and  _388
REMARK  145  A    between atoms: _387  and  _390
REMARK  146  A    between atoms: _393  and  _395
REMARK  147  A    between atoms: _395  and  _396
REMARK  148  A    between atoms: _399  and  _401
REMARK  149  A    between atoms: _401  and  _402
REMARK  150  A    between atoms: _401  and  _404
REMARK  151  A    between atoms: _406  and  _408
REMARK  152  A    between atoms: _408  and  _409
REMARK  153  A    between atoms: _408  and  _411
REMARK  154  A    between atoms: _411  and  _412
REMARK  155  A    between atoms: _412  and  _413
REMARK  156  A    between atoms: _416  and  _418
REMARK  157  A    between atoms: _418  and  _419
REMARK  158  A    between atoms: _421  and  _423
REMARK  159  A    between atoms: _423  and  _424
REMARK  160  A    between atoms: _423  and  _426
REMARK  161  A    between atoms: _430  and  _431
REMARK  162  A    between atoms: _436  and  _438
REMARK  163  A    between atoms: _438  and  _439
REMARK  164  A    between atoms: _438  and  _441
REMARK  165  A    between atoms: _444  and  _446
REMARK  166  A    between atoms: _446  and  _447
REMARK  167  A    between atoms: _446  and  _449
REMARK  168  A    between atoms: _449  and  _450
REMARK  169  A    between atoms: _455  and  _457
REMARK  170  A    between atoms: _457  and  _458
REMARK  171  A    between atoms: _457  and  _460
REMARK  172  A    between atoms: _460  and  _461
REMARK  173  A    between atoms: _467  and  _469
REMARK  174  A    between atoms: _469  and  _470
REMARK  175  A    between atoms: _469  and  _472
REMARK  176  A    between atoms: _472  and  _473
REMARK  177  A    between atoms: _476  and  _478
REMARK  178  A    between atoms: _478  and  _479
REMARK  179  A    between atoms: _482  and  _484
REMARK  180  A    between atoms: _484  and  _485
REMARK  181  A    between atoms: _484  and  _487
REMARK  182  A    between atoms: _487  and  _488
REMARK  183  A    between atoms: _490  and  _492
REMARK  184  A    between atoms: _492  and  _493
REMARK  185  A    between atoms: _492  and  _495
REMARK                            x       y       z     vdW  Elec       q    Type
REMARK                         _______ _______ _______ _____ _____    ______ ____
ROOT
ATOM      1  O   HOH     1     -26.201 -37.497  15.911  0.00  0.00    +0.000 OA
ENDROOT
TORSDOF 0
REMARK  Name = ../refined-set-2016/1u1b/1u1b_pocket.pdb
REMARK  185 active torsions:
REMARK  status: ('A' for Active; 'I' for Inactive)
REMARK    1  A    between atoms: _1  and  _3
REMARK    2  A    between atoms: _3  and  _4
REMARK    3  A    between atoms: _3  and  _6
REMARK    4  A    between atoms: _6  and  _7
REMARK    5  A    between atoms: _7  and  _8
REMARK    6  A    between atoms: _11  and  _13
REMARK    7  A    between atoms: _13  and  _14
REMARK    8  A    between atoms: _13  and  _16
REMARK    9  A    between atoms: _16  and  _17
REMARK   10  A    between atoms: _20  and  _22
REMARK   11  A    between atoms: _22  and  _23
REMARK   12  A    between atoms: _26  and  _28
REMARK   13  A    between atoms: _28  and  _29
REMARK   14  A    between atoms: _32  and  _34
REMARK   15  A    between atoms: _34  and  _35
REMARK   16  A    between atoms: _34  and  _37
REMARK   17  A    between atoms: _37  and  _38
REMARK   18  A    between atoms: _38  and  _39
REMARK   19  A    between atoms: _39  and  _40
REMARK   20  A    between atoms: _40  and  _41
REMARK   21  A    between atoms: _45  and  _47
REMARK   22  A    between atoms: _47  and  _48
REMARK   23  A    between atoms: _47  and  _50
REMARK   24  A    between atoms: _50  and  _51
REMARK   25  A    between atoms: _57  and  _59
REMARK   26  A    between atoms: _59  and  _60
REMARK   27  A    between atoms: _59  and  _62
REMARK   28  A    between atoms: _62  and  _63
REMARK   29  A    between atoms: _63  and  _64
REMARK   30  A    between atoms: _64  and  _65
REMARK   31  A    between atoms: _74  and  _76
REMARK   32  A    between atoms: _76  and  _77
REMARK   33  A    between atoms: _76  and  _79
REMARK   34  A    between atoms: _79  and  _80
REMARK   35  A    between atoms: _80  and  _81
REMARK   36  A    between atoms: _86  and  _88
REMARK   37  A    between atoms: _88  and  _89
REMARK   38  A    between atoms: _88  and  _91
REMARK   39  A    between atoms: _91  and  _92
REMARK   40  A    between atoms: _97  and  _99
REMARK   41  A    between atoms: _99  and  _100
REMARK   42  A    between atoms: _99  and  _102
REMARK   43  A    between atoms: _102  and  _103
REMARK   44  A    between atoms: _103  and  _104
REMARK   45  A    between atoms: _106  and  _108
REMARK   46  A    between atoms: _108  and  _109
REMARK   47  A    between atoms: _108  and  _111
REMARK   48  A    between atoms: _111  and  _112
REMARK   49  A    between atoms: _115  and  _117
REMARK   50  A    between atoms: _117  and  _118
REMARK   51  A    between atoms: _117  and  _120
REMARK   52  A    between atoms: _120  and  _121
REMARK   53  A    between atoms: _121  and  _122
REMARK   54  A    between atoms: _122  and  _123
REMARK   55  A    between atoms: _132  and  _134
REMARK   56  A    between atoms: _134  and  _135
REMARK   57  A    between atoms: _134  and  _137
REMARK   58  A    between atoms: _137  and  _138
REMARK   59  A    between atoms: _138  and  _139
REMARK   60  A    between atoms: _139  and  _140
REMARK   61  A    between atoms: _140  and  _141
REMARK   62  A    between atoms: _146  and  _147
REMARK   63  A    between atoms: _152  and  _154
REMARK   64  A    between atoms: _154  and  _155
REMARK   65  A    between atoms: _154  and  _157
REMARK   66  A    between atoms: _160  and  _162
REMARK   67  A    between atoms: _162  and  _163
REMARK   68  A    between atoms: _162  and  _165
REMARK   69  A    between atoms: _165  and  _166
REMARK   70  A    between atoms: _171  and  _173
REMARK   71  A    between atoms: _173  and  _174
REMARK   72  A    between atoms: _173  and  _176
REMARK   73  A    between atoms: _176  and  _177
REMARK   74  A    between atoms: _180  and  _182
REMARK   75  A    between atoms: _182  and  _183
REMARK   76  A    between atoms: _182  and  _185
REMARK   77  A    between atoms: _185  and  _186
REMARK   78  A    between atoms: _192  and  _194
REMARK   79  A    between atoms: _194  and  _195
REMARK   80  A    between atoms: _194  and  _197
REMARK   81  A    between atoms: _200  and  _202
REMARK   82  A    between atoms: _202  and  _203
REMARK   83  A    between atoms: _202  and  _205
REMARK   84  A    between atoms: _208  and  _210
REMARK   85  A    between atoms: _210  and  _211
REMARK   86  A    between atoms: _214  and  _216
REMARK   87  A    between atoms: _223  and  _226
REMARK   88  A    between atoms: _226  and  _227
REMARK   89  A    between atoms: _227  and  _228
REMARK   90  A    between atoms: _228  and  _229
REMARK   91  A    between atoms: _229  and  _230
REMARK   92  A    between atoms: _236  and  _239
REMARK   93  A    between atoms: _239  and  _240
REMARK   94  A    between atoms: _252  and  _255
REMARK   95  A    between atoms: _255  and  _256
REMARK   96  A    between atoms: _256  and  _257
REMARK   97  A    between atoms: _264  and  _267
REMARK   98  A    between atoms: _267  and  _268
REMARK   99  A    between atoms: _273  and  _276
REMARK  100  A    between atoms: _276  and  _277
REMARK  101  A    between atoms: _284  and  _285
REMARK  102  A    between atoms: _289  and  _291
REMARK  103  A    between atoms: _291  and  _292
REMARK  104  A    between atoms: _291  and  _294
REMARK  105  A    between atoms: _294  and  _295
REMARK  106  A    between atoms: _300  and  _301
REMARK  107  A    between atoms: _303  and  _305
REMARK  108  A    between atoms: _305  and  _306
REMARK  109  A    between atoms: _305  and  _308
REMARK  110  A    between atoms: _308  and  _309
REMARK  111  A    between atoms: _312  and  _314
REMARK  112  A    between atoms: _314  and  _315
REMARK  113  A    between atoms: _314  and  _317
REMARK  114  A    between atoms: _317  and  _318
REMARK  115  A    between atoms: _321  and  _323
REMARK  116  A    between atoms: _323  and  _324
REMARK  117  A    between atoms: _323  and  _326
REMARK  118  A    between atoms: _326  and  _327
REMARK  119  A    between atoms: _330  and  _332
REMARK  120  A    between atoms: _332  and  _333
REMARK  121  A    between atoms: _332  and  _335
REMARK  122  A    between atoms: _337  and  _339
REMARK  123  A    between atoms: _339  and  _340
REMARK  124  A    between atoms: _339  and  _342
REMARK  125  A    between atoms: _342  and  _343
REMARK  126  A    between atoms: _343  and  _344
REMARK  127  A    between atoms: _344  and  _345
REMARK  128  A    between atoms: _354  and  _356
REMARK  129  A    between atoms: _356  and  _357
REMARK  130  A    between atoms: _356  and  _359
REMARK  131  A    between atoms: _359  and  _360
REMARK  132  A    between atoms: _360  and  _361
REMARK  133  A    between atoms: _361  and  _362
REMARK  134  A    between atoms: _362  and  _363
REMARK  135  A    between atoms: _367  and  _369
REMARK  136  A    between atoms: _369  and  _370
REMARK  137  A    between atoms: _369  and  _372
REMARK  138  A    between atoms: _372  and  _373
REMARK  139  A    between atoms: _376  and  _378
REMARK  140  A    between atoms: _378  and  _379
REMARK  141  A    between atoms: _378  and  _381
REMARK  142  A    between atoms: _381  and  _382
REMARK  143  A    between atoms: _385  and  _387
REMARK  144  A    between atoms: _387  and  _388
REMARK  145  A    between atoms: _387  and  _390
REMARK  146  A    between atoms: _393  and  _395
REMARK  147  A    between atoms: _395  and  _396
REMARK  148  A    between atoms: _399  and  _401
REMARK  149  A    between atoms: _401  and  _402
REMARK  150  A    between atoms: _401  and  _404
REMARK  151  A    between atoms: _406  and  _408
REMARK  152  A    between atoms: _408  and  _409
REMARK  153  A    between atoms: _408  and  _411
REMARK  154  A    between atoms: _411  and  _412
REMARK  155  A    between atoms: _412  and  _413
REMARK  156  A    between atoms: _416  and  _418
REMARK  157  A    between atoms: _418  and  _419
REMARK  158  A    between atoms: _421  and  _423
REMARK  159  A    between atoms: _423  and  _424
REMARK  160  A    between atoms: _423  and  _426
REMARK  161  A    between atoms: _430  and  _431
REMARK  162  A    between atoms: _436  and  _438
REMARK  163  A    between atoms: _438  and  _439
REMARK  164  A    between atoms: _438  and  _441
REMARK  165  A    between atoms: _444  and  _446
REMARK  166  A    between atoms: _446  and  _447
REMARK  167  A    between atoms: _446  and  _449
REMARK  168  A    between atoms: _449  and  _450
REMARK  169  A    between atoms: _455  and  _457
REMARK  170  A    between atoms: _457  and  _458
REMARK  171  A    between atoms: _457  and  _460
REMARK  172  A    between atoms: _460  and  _461
REMARK  173  A    between atoms: _467  and  _469
REMARK  174  A    between atoms: _469  and  _470
REMARK  175  A    between atoms: _469  and  _472
REMARK  176  A    between atoms: _472  and  _473
REMARK  177  A    between atoms: _476  and  _478
REMARK  178  A    between atoms: _478  and  _479
REMARK  179  A    between atoms: _482  and  _484
REMARK  180  A    between atoms: _484  and  _485
REMARK  181  A    between atoms: _484  and  _487
REMARK  182  A    between atoms: _487  and  _488
REMARK  183  A    between atoms: _490  and  _492
REMARK  184  A    between atoms: _492  and  _493
REMARK  185  A    between atoms: _492  and  _495
REMARK                            x       y       z     vdW  Elec       q    Type
REMARK                         _______ _______ _______ _____ _____    ______ ____
ROOT
ATOM      1  O   HOH     1     -16.925 -34.205  18.550  0.00  0.00    +0.000 OA
ENDROOT
TORSDOF 0
REMARK  Name = ../refined-set-2016/1u1b/1u1b_pocket.pdb
REMARK  185 active torsions:
REMARK  status: ('A' for Active; 'I' for Inactive)
REMARK    1  A    between atoms: _1  and  _3
REMARK    2  A    between atoms: _3  and  _4
REMARK    3  A    between atoms: _3  and  _6
REMARK    4  A    between atoms: _6  and  _7
REMARK    5  A    between atoms: _7  and  _8
REMARK    6  A    between atoms: _11  and  _13
REMARK    7  A    between atoms: _13  and  _14
REMARK    8  A    between atoms: _13  and  _16
REMARK    9  A    between atoms: _16  and  _17
REMARK   10  A    between atoms: _20  and  _22
REMARK   11  A    between atoms: _22  and  _23
REMARK   12  A    between atoms: _26  and  _28
REMARK   13  A    between atoms: _28  and  _29
REMARK   14  A    between atoms: _32  and  _34
REMARK   15  A    between atoms: _34  and  _35
REMARK   16  A    between atoms: _34  and  _37
REMARK   17  A    between atoms: _37  and  _38
REMARK   18  A    between atoms: _38  and  _39
REMARK   19  A    between atoms: _39  and  _40
REMARK   20  A    between atoms: _40  and  _41
REMARK   21  A    between atoms: _45  and  _47
REMARK   22  A    between atoms: _47  and  _48
REMARK   23  A    between atoms: _47  and  _50
REMARK   24  A    between atoms: _50  and  _51
REMARK   25  A    between atoms: _57  and  _59
REMARK   26  A    between atoms: _59  and  _60
REMARK   27  A    between atoms: _59  and  _62
REMARK   28  A    between atoms: _62  and  _63
REMARK   29  A    between atoms: _63  and  _64
REMARK   30  A    between atoms: _64  and  _65
REMARK   31  A    between atoms: _74  and  _76
REMARK   32  A    between atoms: _76  and  _77
REMARK   33  A    between atoms: _76  and  _79
REMARK   34  A    between atoms: _79  and  _80
REMARK   35  A    between atoms: _80  and  _81
REMARK   36  A    between atoms: _86  and  _88
REMARK   37  A    between atoms: _88  and  _89
REMARK   38  A    between atoms: _88  and  _91
REMARK   39  A    between atoms: _91  and  _92
REMARK   40  A    between atoms: _97  and  _99
REMARK   41  A    between atoms: _99  and  _100
REMARK   42  A    between atoms: _99  and  _102
REMARK   43  A    between atoms: _102  and  _103
REMARK   44  A    between atoms: _103  and  _104
REMARK   45  A    between atoms: _106  and  _108
REMARK   46  A    between atoms: _108  and  _109
REMARK   47  A    between atoms: _108  and  _111
REMARK   48  A    between atoms: _111  and  _112
REMARK   49  A    between atoms: _115  and  _117
REMARK   50  A    between atoms: _117  and  _118
REMARK   51  A    between atoms: _117  and  _120
REMARK   52  A    between atoms: _120  and  _121
REMARK   53  A    between atoms: _121  and  _122
REMARK   54  A    between atoms: _122  and  _123
REMARK   55  A    between atoms: _132  and  _134
REMARK   56  A    between atoms: _134  and  _135
REMARK   57  A    between atoms: _134  and  _137
REMARK   58  A    between atoms: _137  and  _138
REMARK   59  A    between atoms: _138  and  _139
REMARK   60  A    between atoms: _139  and  _140
REMARK   61  A    between atoms: _140  and  _141
REMARK   62  A    between atoms: _146  and  _147
REMARK   63  A    between atoms: _152  and  _154
REMARK   64  A    between atoms: _154  and  _155
REMARK   65  A    between atoms: _154  and  _157
REMARK   66  A    between atoms: _160  and  _162
REMARK   67  A    between atoms: _162  and  _163
REMARK   68  A    between atoms: _162  and  _165
REMARK   69  A    between atoms: _165  and  _166
REMARK   70  A    between atoms: _171  and  _173
REMARK   71  A    between atoms: _173  and  _174
REMARK   72  A    between atoms: _173  and  _176
REMARK   73  A    between atoms: _176  and  _177
REMARK   74  A    between atoms: _180  and  _182
REMARK   75  A    between atoms: _182  and  _183
REMARK   76  A    between atoms: _182  and  _185
REMARK   77  A    between atoms: _185  and  _186
REMARK   78  A    between atoms: _192  and  _194
REMARK   79  A    between atoms: _194  and  _195
REMARK   80  A    between atoms: _194  and  _197
REMARK   81  A    between atoms: _200  and  _202
REMARK   82  A    between atoms: _202  and  _203
REMARK   83  A    between atoms: _202  and  _205
REMARK   84  A    between atoms: _208  and  _210
REMARK   85  A    between atoms: _210  and  _211
REMARK   86  A    between atoms: _214  and  _216
REMARK   87  A    between atoms: _223  and  _226
REMARK   88  A    between atoms: _226  and  _227
REMARK   89  A    between atoms: _227  and  _228
REMARK   90  A    between atoms: _228  and  _229
REMARK   91  A    between atoms: _229  and  _230
REMARK   92  A    between atoms: _236  and  _239
REMARK   93  A    between atoms: _239  and  _240
REMARK   94  A    between atoms: _252  and  _255
REMARK   95  A    between atoms: _255  and  _256
REMARK   96  A    between atoms: _256  and  _257
REMARK   97  A    between atoms: _264  and  _267
REMARK   98  A    between atoms: _267  and  _268
REMARK   99  A    between atoms: _273  and  _276
REMARK  100  A    between atoms: _276  and  _277
REMARK  101  A    between atoms: _284  and  _285
REMARK  102  A    between atoms: _289  and  _291
REMARK  103  A    between atoms: _291  and  _292
REMARK  104  A    between atoms: _291  and  _294
REMARK  105  A    between atoms: _294  and  _295
REMARK  106  A    between atoms: _300  and  _301
REMARK  107  A    between atoms: _303  and  _305
REMARK  108  A    between atoms: _305  and  _306
REMARK  109  A    between atoms: _305  and  _308
REMARK  110  A    between atoms: _308  and  _309
REMARK  111  A    between atoms: _312  and  _314
REMARK  112  A    between atoms: _314  and  _315
REMARK  113  A    between atoms: _314  and  _317
REMARK  114  A    between atoms: _317  and  _318
REMARK  115  A    between atoms: _321  and  _323
REMARK  116  A    between atoms: _323  and  _324
REMARK  117  A    between atoms: _323  and  _326
REMARK  118  A    between atoms: _326  and  _327
REMARK  119  A    between atoms: _330  and  _332
REMARK  120  A    between atoms: _332  and  _333
REMARK  121  A    between atoms: _332  and  _335
REMARK  122  A    between atoms: _337  and  _339
REMARK  123  A    between atoms: _339  and  _340
REMARK  124  A    between atoms: _339  and  _342
REMARK  125  A    between atoms: _342  and  _343
REMARK  126  A    between atoms: _343  and  _344
REMARK  127  A    between atoms: _344  and  _345
REMARK  128  A    between atoms: _354  and  _356
REMARK  129  A    between atoms: _356  and  _357
REMARK  130  A    between atoms: _356  and  _359
REMARK  131  A    between atoms: _359  and  _360
REMARK  132  A    between atoms: _360  and  _361
REMARK  133  A    between atoms: _361  and  _362
REMARK  134  A    between atoms: _362  and  _363
REMARK  135  A    between atoms: _367  and  _369
REMARK  136  A    between atoms: _369  and  _370
REMARK  137  A    between atoms: _369  and  _372
REMARK  138  A    between atoms: _372  and  _373
REMARK  139  A    between atoms: _376  and  _378
REMARK  140  A    between atoms: _378  and  _379
REMARK  141  A    between atoms: _378  and  _381
REMARK  142  A    between atoms: _381  and  _382
REMARK  143  A    between atoms: _385  and  _387
REMARK  144  A    between atoms: _387  and  _388
REMARK  145  A    between atoms: _387  and  _390
REMARK  146  A    between atoms: _393  and  _395
REMARK  147  A    between atoms: _395  and  _396
REMARK  148  A    between atoms: _399  and  _401
REMARK  149  A    between atoms: _401  and  _402
REMARK  150  A    between atoms: _401  and  _404
REMARK  151  A    between atoms: _406  and  _408
REMARK  152  A    between atoms: _408  and  _409
REMARK  153  A    between atoms: _408  and  _411
REMARK  154  A    between atoms: _411  and  _412
REMARK  155  A    between atoms: _412  and  _413
REMARK  156  A    between atoms: _416  and  _418
REMARK  157  A    between atoms: _418  and  _419
REMARK  158  A    between atoms: _421  and  _423
REMARK  159  A    between atoms: _423  and  _424
REMARK  160  A    between atoms: _423  and  _426
REMARK  161  A    between atoms: _430  and  _431
REMARK  162  A    between atoms: _436  and  _438
REMARK  163  A    between atoms: _438  and  _439
REMARK  164  A    between atoms: _438  and  _441
REMARK  165  A    between atoms: _444  and  _446
REMARK  166  A    between atoms: _446  and  _447
REMARK  167  A    between atoms: _446  and  _449
REMARK  168  A    between atoms: _449  and  _450
REMARK  169  A    between atoms: _455  and  _457
REMARK  170  A    between atoms: _457  and  _458
REMARK  171  A    between atoms: _457  and  _460
REMARK  172  A    between atoms: _460  and  _461
REMARK  173  A    between atoms: _467  and  _469
REMARK  174  A    between atoms: _469  and  _470
REMARK  175  A    between atoms: _469  and  _472
REMARK  176  A    between atoms: _472  and  _473
REMARK  177  A    between atoms: _476  and  _478
REMARK  178  A    between atoms: _478  and  _479
REMARK  179  A    between atoms: _482  and  _484
REMARK  180  A    between atoms: _484  and  _485
REMARK  181  A    between atoms: _484  and  _487
REMARK  182  A    between atoms: _487  and  _488
REMARK  183  A    between atoms: _490  and  _492
REMARK  184  A    between atoms: _492  and  _493
REMARK  185  A    between atoms: _492  and  _495
REMARK                            x       y       z     vdW  Elec       q    Type
REMARK                         _______ _______ _______ _____ _____    ______ ____
ROOT
ATOM      1  O   HOH     1     -24.640 -26.547  11.517  0.00  0.00    +0.000 OA
ENDROOT
TORSDOF 0
